test/testcases/PEGASE-9241_flat_start.m
% Case saved by PowerWorld Simulator, version 21, build date July 16, 2020
function mpc = pegase_9241_flat_start
mpc.version = '2';
mpc.baseMVA =  100.00;

%% bus data 
mpc.bus = [
1	1	378.40	98.50	0.00	16.61	0	1.0000000	0.000000	220.00	6	1.100	0.900
2	2	0.00	0.00	0.00	0.00	0	1.0000000	0.000000	154.00	1	1.100	0.900
3	1	151.00	48.80	0.00	4.69	0	1.0000000	0.000000	220.00	5	1.100	0.900
4	1	171.41	23.40	0.00	2.10	0	1.0000000	0.000000	220.00	5	1.100	0.900
5	1	45.95	14.00	0.00	13.34	0	1.0000000	0.000000	220.00	6	1.100	0.900
6	2	0.00	0.00	0.00	0.00	0	1.0000000	0.000000	380.00	6	1.100	0.900
7	1	31.03	10.30	0.00	0.65	0	1.0000000	0.000000	110.00	21	1.100	0.900
8	2	0.00	0.00	0.00	0.00	0	1.0000000	0.000000	154.00	1	1.100	0.900
9	1	14.30	2.00	0.00	1.91	0	1.0000000	0.000000	154.00	1	1.100	0.900
10	1	134.00	24.70	0.00	12.44	0	1.0000000	0.000000	220.00	5	1.100	0.900
11	1	0.00	0.00	0.00	0.00	0	1.0000000	0.000000	150.00	9	1.100	0.900
12	1	-6.11	2.00	0.00	0.47	0	1.0000000	0.000000	150.00	9	1.100	0.900
13	1	-22.74	-8.32	0.00	6.50	0	1.0000000	0.000000	220.00	6	1.100	0.900
14	1	13.50	14.80	0.00	132.44	0	1.0000000	0.000000	380.00	9	1.100	0.900
15	1	59.67	26.70	0.00	12.84	0	1.0000000	0.000000	220.00	4	1.100	0.900
16	1	30.60	4.30	0.00	5.15	0	1.0000000	0.000000	154.00	1	1.100	0.900
17	1	67.68	12.10	0.00	2.18	0	1.0000000	0.000000	220.00	3	1.100	0.900
18	2	0.00	0.00	0.00	0.00	0	1.0000000	0.000000	380.00	3	1.100	0.900
19	1	25.33	7.50	0.00	2.39	0	1.0000000	0.000000	110.00	12	1.100	0.900
20	1	1.40	0.20	0.00	4.93	0	1.0000000	0.000000	154.00	1	1.100	0.900
21	1	161.20	39.30	0.00	30.71	0	1.0000000	0.000000	220.00	5	1.100	0.900
22	1	0.00	0.00	0.00	0.85	0	1.0000000	0.000000	220.00	5	1.100	0.900
23	1	19.62	7.10	0.00	1.15	0	1.0000000	0.000000	110.00	19	1.100	0.900
24	1	17.22	5.70	0.00	1.22	0	1.0000000	0.000000	110.00	21	1.100	0.900
25	2	0.00	0.00	0.00	0.00	0	1.0000000	0.000000	220.00	3	1.100	0.900
26	1	167.30	54.80	0.00	110.54	0	1.0000000	0.000000	380.00	5	1.100	0.900
27	1	0.00	0.00	0.00	14.82	0	1.0000000	0.000000	380.00	13	1.100	0.900
28	1	0.00	0.00	0.00	0.00	0	1.0000000	0.000000	150.00	9	1.100	0.900
29	1	152.90	49.40	0.00	27.65	0	1.0000000	0.000000	380.00	5	1.100	0.900
30	1	0.00	0.00	0.00	0.56	0	1.0000000	0.000000	150.00	9	1.100	0.900
31	1	69.68	43.20	0.00	6.30	0	1.0000000	0.000000	150.00	9	1.100	0.900
32	2	0.00	0.00	0.00	0.00	0	1.0000000	0.000000	220.00	4	1.100	0.900
33	2	0.00	0.00	0.00	0.00	0	1.0000000	0.000000	220.00	4	1.100	0.900
34	1	13.52	4.90	0.00	1.80	0	1.0000000	0.000000	110.00	19	1.100	0.900
35	1	10.51	3.50	0.00	0.31	0	1.0000000	0.000000	110.00	12	1.100	0.900
36	1	0.00	0.00	0.12	15.34	0	1.0000000	0.000000	220.00	19	1.100	0.900
37	1	9.21	2.60	0.00	2.00	0	1.0000000	0.000000	110.00	18	1.100	0.900
38	1	42.75	12.80	0.00	13.30	0	1.0000000	0.000000	220.00	8	1.100	0.900
39	2	0.00	0.00	0.00	0.00	0	1.0000000	0.000000	150.00	10	1.100	0.900
40	1	16.02	4.54	0.00	0.10	0	1.0000000	0.000000	110.00	23	1.100	0.900
41	1	27.90	4.00	0.00	4.23	0	1.0000000	0.000000	154.00	1	1.100	0.900
42	1	20.82	7.90	0.00	26.89	0	1.0000000	0.000000	380.00	4	1.100	0.900
43	1	12.60	1.80	0.00	2.03	0	1.0000000	0.000000	154.00	1	1.100	0.900
44	1	0.00	0.00	0.00	7.27	0	1.0000000	0.000000	220.00	5	1.100	0.900
45	1	10.11	3.70	0.00	0.81	0	1.0000000	0.000000	110.00	19	1.100	0.900
46	1	10.01	2.70	0.00	1.14	0	1.0000000	0.000000	110.00	18	1.100	0.900
47	1	6.31	0.00	0.00	0.67	0	1.0000000	0.000000	110.00	18	1.100	0.900
48	1	2.90	0.90	0.00	0.60	0	1.0000000	0.000000	110.00	15	1.100	0.900
49	2	0.00	0.00	0.00	0.00	0	1.0000000	0.000000	220.00	6	1.100	0.900
50	1	48.80	6.90	0.00	8.71	0	1.0000000	0.000000	154.00	1	1.100	0.900
51	2	0.00	0.00	0.00	0.00	0	1.0000000	0.000000	220.00	4	1.100	0.900
52	1	127.60	31.80	0.00	20.51	0	1.0000000	0.000000	150.00	8	1.100	0.900
53	1	48.65	16.10	0.00	7.14	0	1.0000000	0.000000	220.00	5	1.100	0.900
54	1	110.50	-26.80	0.00	16.37	0	1.0000000	0.000000	220.00	6	1.100	0.900
55	1	0.00	0.00	0.00	1.23	0	1.0000000	0.000000	220.00	3	1.100	0.900
56	1	140.00	79.70	0.00	6.50	0	1.0000000	0.000000	220.00	3	1.100	0.900
57	1	21.60	3.00	0.00	3.54	0	1.0000000	0.000000	154.00	1	1.100	0.900
58	1	0.00	0.00	0.00	2.31	0	1.0000000	0.000000	380.00	5	1.100	0.900
59	1	119.20	20.70	0.00	3.31	0	1.0000000	0.000000	220.00	5	1.100	0.900
60	1	0.24	-1.66	0.00	0.65	0	1.0000000	0.000000	110.00	18	1.100	0.900
61	1	0.00	0.00	0.00	58.57	0	1.0000000	0.000000	380.00	3	1.100	0.900
62	1	0.00	0.00	0.00	1.34	0	1.0000000	0.000000	110.00	18	1.100	0.900
63	1	187.90	110.20	0.00	21.25	0	1.0000000	0.000000	380.00	3	1.100	0.900
64	1	14.92	5.50	0.00	1.31	0	1.0000000	0.000000	110.00	15	1.100	0.900
65	1	-18.52	6.10	0.00	0.79	0	1.0000000	0.000000	150.00	9	1.100	0.900
66	1	4.61	1.70	0.00	2.32	0	1.0000000	0.000000	110.00	19	1.100	0.900
67	1	0.00	0.00	0.10	82.13	0	1.0000000	0.000000	380.00	18	1.100	0.900
68	1	10.81	5.10	0.00	1.09	0	1.0000000	0.000000	110.00	18	1.100	0.900
69	1	62.87	20.50	0.00	1.15	0	1.0000000	0.000000	150.00	8	1.100	0.900
70	1	0.00	0.00	0.00	2.64	0	1.0000000	0.000000	154.00	1	1.100	0.900
71	1	126.30	42.40	0.00	55.24	0	1.0000000	0.000000	150.00	8	1.100	0.900
72	1	6.91	-4.60	0.00	5.75	0	1.0000000	0.000000	220.00	4	1.100	0.900
73	1	15.72	5.20	0.00	0.11	0	1.0000000	0.000000	110.00	12	1.100	0.900
74	1	0.00	0.00	0.00	0.00	0	1.0000000	0.000000	150.00	9	1.100	0.900
75	1	38.74	6.10	0.00	1.17	0	1.0000000	0.000000	220.00	4	1.100	0.900
76	1	22.13	10.70	0.00	14.21	0	1.0000000	0.000000	220.00	8	1.100	0.900
77	1	0.00	0.00	0.00	0.73	0	1.0000000	0.000000	220.00	4	1.100	0.900
78	1	0.00	0.00	0.00	0.83	0	1.0000000	0.000000	110.00	18	1.100	0.900
79	1	138.80	136.70	0.00	8.76	0	1.0000000	0.000000	380.00	3	1.100	0.900
80	2	0.00	0.00	0.00	0.00	0	1.0000000	0.000000	220.00	23	1.100	0.900
81	1	67.76	19.18	0.00	1.47	0	1.0000000	0.000000	150.00	1	1.100	0.900
82	1	22.02	5.10	0.00	0.69	0	1.0000000	0.000000	110.00	1	1.100	0.900
83	1	0.00	0.00	0.00	6.62	0	1.0000000	0.000000	220.00	3	1.100	0.900
84	1	1.00	0.30	0.00	0.19	0	1.0000000	0.000000	110.00	19	1.100	0.900
85	1	20.90	3.00	0.00	5.74	0	1.0000000	0.000000	154.00	1	1.100	0.900
86	1	0.00	0.00	0.00	0.12	0	1.0000000	0.000000	150.00	9	1.100	0.900
87	1	21.52	5.10	0.00	0.50	0	1.0000000	0.000000	110.00	18	1.100	0.900
88	1	71.98	28.80	0.00	11.00	0	1.0000000	0.000000	220.00	6	1.100	0.900
89	1	0.00	0.00	0.20	4.53	0	1.0000000	0.000000	380.00	2	1.100	0.900
90	1	363.25	115.39	0.00	3.95	0	1.0000000	0.000000	220.00	5	1.100	0.900
91	1	0.00	0.00	0.00	0.02	0	1.0000000	0.000000	150.00	8	1.100	0.900
92	1	192.90	73.30	0.00	20.75	0	1.0000000	0.000000	380.00	3	1.100	0.900
93	1	17.52	6.30	0.00	0.26	0	1.0000000	0.000000	110.00	19	1.100	0.900
94	1	33.14	12.00	0.00	0.65	0	1.0000000	0.000000	110.00	19	1.100	0.900
95	1	40.45	25.00	0.00	9.82	0	1.0000000	0.000000	150.00	9	1.100	0.900
96	1	193.17	53.37	0.00	4.58	0	1.0000000	0.000000	220.00	5	1.100	0.900
97	1	0.00	0.00	0.00	9.38	0	1.0000000	0.000000	380.00	1	1.100	0.900
98	1	90.70	25.50	0.00	3.11	0	1.0000000	0.000000	220.00	3	1.100	0.900
99	1	176.30	-58.90	0.00	24.77	0	1.0000000	0.000000	380.00	6	1.100	0.900
100	1	35.94	22.30	0.00	0.00	0	1.0000000	0.000000	150.00	9	1.100	0.900
101	1	0.00	0.00	0.00	0.29	0	1.0000000	0.000000	150.00	9	1.100	0.900
102	1	0.00	0.00	0.00	3.77	0	1.0000000	0.000000	220.00	6	1.100	0.900
103	1	65.07	40.30	0.00	5.43	0	1.0000000	0.000000	150.00	9	1.100	0.900
104	1	51.36	-8.80	0.00	2.15	0	1.0000000	0.000000	220.00	6	1.100	0.900
105	1	0.00	0.00	0.00	82.55	0	1.0000000	0.000000	380.00	6	1.100	0.900
106	1	0.00	0.00	0.00	31.19	0	1.0000000	0.000000	380.00	23	1.100	0.900
107	2	0.00	0.00	0.00	0.00	0	1.0000000	0.000000	380.00	3	1.100	0.900
108	1	3.80	1.30	0.00	0.40	0	1.0000000	0.000000	110.00	18	1.100	0.900
109	1	137.00	19.50	0.00	4.90	0	1.0000000	0.000000	154.00	1	1.100	0.900
110	1	0.00	0.00	0.00	0.00	0	1.0000000	0.000000	150.00	9	1.100	0.900
111	1	61.07	36.00	0.00	3.09	0	1.0000000	0.000000	220.00	11	1.100	0.900
112	1	0.00	0.00	0.00	3.24	0	1.0000000	0.000000	220.00	3	1.100	0.900
113	1	0.00	0.00	0.00	6.53	0	1.0000000	0.000000	380.00	5	1.100	0.900
114	1	55.70	7.90	0.00	4.21	0	1.0000000	0.000000	154.00	1	1.100	0.900
115	1	0.00	0.00	0.00	4.21	0	1.0000000	0.000000	220.00	5	1.100	0.900
116	1	1.80	0.70	0.00	0.30	0	1.0000000	0.000000	110.00	19	1.100	0.900
117	1	40.04	16.00	0.00	0.52	0	1.0000000	0.000000	110.00	18	1.100	0.900
118	1	0.00	0.00	0.00	36.56	0	1.0000000	0.000000	380.00	5	1.100	0.900
119	1	0.00	0.00	0.00	0.09	0	1.0000000	0.000000	150.00	9	1.100	0.900
120	1	140.60	20.10	0.00	13.81	0	1.0000000	0.000000	154.00	1	1.100	0.900
121	1	45.15	14.10	0.00	0.19	0	1.0000000	0.000000	110.00	15	1.100	0.900
122	1	0.00	0.00	0.00	5.75	0	1.0000000	0.000000	220.00	3	1.100	0.900
123	2	0.00	0.00	0.00	0.00	0	1.0000000	0.000000	220.00	11	1.100	0.900
124	2	0.00	0.00	0.00	0.00	0	1.0000000	0.000000	220.00	5	1.100	0.900
125	1	3.42	2.68	0.00	1.46	0	1.0000000	0.000000	110.00	18	1.100	0.900
126	1	0.00	0.00	0.00	2.64	0	1.0000000	0.000000	154.00	1	1.100	0.900
127	1	0.00	0.00	0.00	4.30	0	1.0000000	0.000000	220.00	6	1.100	0.900
128	1	23.73	12.70	0.00	0.52	0	1.0000000	0.000000	220.00	5	1.100	0.900
129	1	121.90	7.40	0.00	1.34	0	1.0000000	0.000000	220.00	3	1.100	0.900
130	1	0.00	0.00	0.14	47.75	0	1.0000000	0.000000	380.00	10	1.100	0.900
131	1	47.35	16.40	0.00	4.08	0	1.0000000	0.000000	110.00	22	1.100	0.900
132	1	0.00	0.00	0.00	21.39	0	1.0000000	0.000000	380.00	1	1.100	0.900
133	1	38.14	12.50	0.00	6.28	0	1.0000000	0.000000	150.00	8	1.100	0.900
134	1	54.20	7.80	0.00	94.90	0	1.0000000	0.000000	400.00	1	1.100	0.900
135	1	130.60	84.90	0.00	4.22	0	1.0000000	0.000000	220.00	7	1.100	0.900
136	1	7.91	2.60	0.00	0.74	0	1.0000000	0.000000	110.00	12	1.100	0.900
137	1	42.10	74.61	0.00	37.58	0	1.0000000	0.000000	150.00	1	1.100	0.900
138	1	-75.38	7.80	0.00	29.90	0	1.0000000	0.000000	380.00	10	1.100	0.900
139	1	0.00	0.00	0.00	36.92	0	1.0000000	0.000000	380.00	8	1.100	0.900
140	1	0.00	0.00	0.00	4.14	0	1.0000000	0.000000	220.00	8	1.100	0.900
141	2	0.00	0.00	0.00	0.00	0	1.0000000	0.000000	220.00	13	1.100	0.900
142	2	0.00	0.00	0.00	0.00	0	1.0000000	0.000000	220.00	6	1.100	0.900
143	1	0.00	0.00	0.00	0.00	0	1.0000000	0.000000	150.00	8	1.100	0.900
144	1	0.00	0.00	0.00	98.53	0	1.0000000	0.000000	380.00	14	1.100	0.900
145	1	38.34	5.60	0.00	7.64	0	1.0000000	0.000000	220.00	5	1.100	0.900
146	1	269.60	65.70	0.00	0.00	0	1.0000000	0.000000	120.00	20	1.100	0.900
147	2	0.00	0.00	0.00	0.00	0	1.0000000	0.000000	220.00	7	1.100	0.900
148	1	32.34	12.00	0.00	6.10	0	1.0000000	0.000000	220.00	5	1.100	0.900
149	1	100.10	45.10	0.00	1.11	0	1.0000000	0.000000	380.00	6	1.100	0.900
150	2	0.00	0.00	0.00	0.00	0	1.0000000	0.000000	220.00	5	1.100	0.900
151	2	0.00	0.00	0.00	0.00	0	1.0000000	0.000000	154.00	1	1.100	0.900
152	1	7.00	1.00	0.00	4.69	0	1.0000000	0.000000	154.00	1	1.100	0.900
153	1	0.00	0.00	0.00	0.56	0	1.0000000	0.000000	150.00	7	1.100	0.900
154	1	0.00	0.00	0.00	1.29	0	1.0000000	0.000000	110.00	12	1.100	0.900
155	1	0.00	0.00	0.00	1.70	0	1.0000000	0.000000	110.00	21	1.100	0.900
156	1	40.34	25.00	0.00	1.14	0	1.0000000	0.000000	150.00	9	1.100	0.900
157	1	9.21	3.30	0.00	1.20	0	1.0000000	0.000000	110.00	19	1.100	0.900
158	1	166.00	60.30	0.00	0.57	0	1.0000000	0.000000	220.00	3	1.100	0.900
159	1	0.00	0.00	0.00	0.10	0	1.0000000	0.000000	150.00	9	1.100	0.900
160	1	79.40	11.30	0.00	4.92	0	1.0000000	0.000000	154.00	1	1.100	0.900
161	1	0.00	0.00	0.00	0.16	0	1.0000000	0.000000	150.00	9	1.100	0.900
162	1	0.00	0.00	0.00	66.65	0	1.0000000	0.000000	380.00	6	1.100	0.900
163	1	147.76	32.73	0.00	8.34	0	1.0000000	0.000000	220.00	5	1.100	0.900
164	1	0.00	0.00	0.00	5.17	0	1.0000000	0.000000	150.00	8	1.100	0.900
165	1	26.80	-3.70	0.00	51.26	0	1.0000000	0.000000	380.00	9	1.100	0.900
166	2	0.00	0.00	0.00	0.00	0	1.0000000	0.000000	220.00	3	1.100	0.900
167	1	257.50	131.10	0.00	1.08	0	1.0000000	0.000000	220.00	3	1.100	0.900
168	1	16.70	2.40	0.00	6.09	0	1.0000000	0.000000	154.00	1	1.100	0.900
169	1	0.00	0.00	0.00	1.91	0	1.0000000	0.000000	150.00	9	1.100	0.900
170	1	0.00	0.00	0.00	2.35	0	1.0000000	0.000000	220.00	1	1.100	0.900
171	1	100.80	13.20	0.00	5.24	0	1.0000000	0.000000	220.00	5	1.100	0.900
172	1	111.70	10.96	0.00	4.22	0	1.0000000	0.000000	220.00	4	1.100	0.900
173	1	90.38	-5.05	0.00	8.49	0	1.0000000	0.000000	220.00	13	1.100	0.900
174	1	370.50	-17.00	0.00	9.91	0	1.0000000	0.000000	220.00	5	1.100	0.900
175	1	9.91	3.20	0.00	0.67	0	1.0000000	0.000000	110.00	12	1.100	0.900
176	1	-0.69	-5.46	0.00	5.07	0	1.0000000	0.000000	150.00	9	1.100	0.900
177	1	94.90	36.20	0.00	16.46	0	1.0000000	0.000000	220.00	10	1.100	0.900
178	1	81.09	48.00	0.00	0.03	0	1.0000000	0.000000	150.00	9	1.100	0.900
179	2	0.00	0.00	0.00	0.00	0	1.0000000	0.000000	380.00	4	1.100	0.900
180	1	0.00	0.00	0.00	0.54	0	1.0000000	0.000000	110.00	21	1.100	0.900
181	1	54.96	16.90	0.00	3.37	0	1.0000000	0.000000	110.00	22	1.100	0.900
182	1	19.32	26.00	0.00	0.69	0	1.0000000	0.000000	220.00	3	1.100	0.900
183	1	0.00	0.00	0.00	1.83	0	1.0000000	0.000000	150.00	9	1.100	0.900
184	1	0.00	0.00	0.00	2.42	0	1.0000000	0.000000	220.00	5	1.100	0.900
185	1	20.90	3.00	0.00	4.11	0	1.0000000	0.000000	154.00	1	1.100	0.900
186	1	19.92	6.60	0.00	0.56	0	1.0000000	0.000000	110.00	21	1.100	0.900
187	1	57.16	2.00	0.00	1.48	0	1.0000000	0.000000	110.00	22	1.100	0.900
188	1	36.84	13.90	0.00	3.30	0	1.0000000	0.000000	220.00	5	1.100	0.900
189	1	-15.04	-5.12	0.00	0.43	0	1.0000000	0.000000	110.00	18	1.100	0.900
190	2	0.00	0.00	0.00	0.00	0	1.0000000	0.000000	110.00	19	1.100	0.900
191	1	0.00	0.00	0.00	14.19	0	1.0000000	0.000000	220.00	6	1.100	0.900
192	2	0.00	0.00	0.00	0.00	0	1.0000000	0.000000	380.00	3	1.100	0.900
193	1	119.90	3.70	0.00	3.33	0	1.0000000	0.000000	220.00	3	1.100	0.900
194	2	0.00	0.00	0.00	0.00	0	1.0000000	0.000000	150.00	8	1.100	0.900
195	1	73.14	21.55	0.00	8.52	0	1.0000000	0.000000	220.00	5	1.100	0.900
196	1	0.00	0.00	0.00	12.48	0	1.0000000	0.000000	220.00	5	1.100	0.900
197	2	0.00	0.00	0.00	0.00	0	1.0000000	0.000000	380.00	3	1.100	0.900
198	1	39.74	11.80	0.00	1.44	0	1.0000000	0.000000	220.00	5	1.100	0.900
199	1	86.80	28.40	0.00	1.34	0	1.0000000	0.000000	150.00	8	1.100	0.900
200	1	22.42	2.10	0.00	0.19	0	1.0000000	0.000000	150.00	1	1.100	0.900
...
];

%% generator data 
mpc.gen = [
2	-81.40	0.00	42.19	-20.45	1.0317	100.00	1	100.00	-108.53	0.00	0.00	0.00	0.00	0.00	0.00	0	0	0	0	100.0000
6	701.00	0.00	524.53	-211.57	1.0385	100.00	1	1200.00	400.00	0.00	0.00	0.00	0.00	0.00	0.00	0	0	0	0	1200.0000
8	499.70	81.79	251.73	-246.25	1.0230	100.00	1	524.68	0.00	0.00	0.00	0.00	0.00	0.00	0.00	0	0	0	0	524.6800
18	467.50	-289.93	212.97	-93.48	1.0267	100.00	1	500.00	166.67	0.00	0.00	0.00	0.00	0.00	0.00	0	0	0	0	500.0000
25	319.60	0.00	179.43	-66.21	1.0285	100.00	1	400.00	0.00	0.00	0.00	0.00	0.00	0.00	0.00	0	0	0	0	400.0000
32	8.00	71.64	5.91	-4.56	1.0032	100.00	1	16.20	0.00	0.00	0.00	0.00	0.00	0.00	0.00	0	0	0	0	16.2000
33	5.30	-14.56	2.27	-1.08	1.0265	100.00	1	5.38	0.00	0.00	0.00	0.00	0.00	0.00	0.00	0	0	0	0	5.3800
39	34.30	4.78	17.76	-7.14	1.0035	100.00	1	40.00	0.00	0.00	0.00	0.00	0.00	0.00	0.00	0	0	0	0	40.0000
49	309.20	49.61	218.52	-75.97	1.0203	100.00	1	480.00	0.00	0.00	0.00	0.00	0.00	0.00	0.00	0	0	0	0	480.0000
51	-144.50	9.74	5.48	-4.19	1.0067	100.00	1	100.00	-192.67	0.00	0.00	0.00	0.00	0.00	0.00	0	0	0	0	100.0000
80	43.20	861.35	139.94	-43.78	1.0684	100.00	1	100.00	28.80	0.00	0.00	0.00	0.00	0.00	0.00	0	0	0	0	100.0000
107	570.00	-5.01	253.85	-113.79	1.0831	100.00	1	600.00	200.00	0.00	0.00	0.00	0.00	0.00	0.00	0	0	0	0	600.0000
123	24.90	124.23	18.84	-6.06	1.0415	100.00	1	40.00	0.00	0.00	0.00	0.00	0.00	0.00	0.00	0	0	0	0	40.0000
124	861.30	0.00	440.32	-172.59	1.0771	100.00	1	1000.00	333.33	0.00	0.00	0.00	0.00	0.00	0.00	0	0	0	0	1000.0000
141	-73.20	3.15	18.59	-6.33	1.0507	100.00	1	100.00	-97.60	0.00	0.00	0.00	0.00	0.00	0.00	0	0	0	0	100.0000
142	158.70	48.83	78.15	-32.40	1.0423	100.00	1	180.00	0.00	0.00	0.00	0.00	0.00	0.00	0.00	0	0	0	0	180.0000
147	-16.00	570.76	70.12	-29.50	1.0580	100.00	1	100.00	-21.33	0.00	0.00	0.00	0.00	0.00	0.00	0	0	0	0	100.0000
150	67.29	119.42	77.09	-22.54	1.0621	100.00	1	160.00	0.00	0.00	0.00	0.00	0.00	0.00	0.00	0	0	0	0	160.0000
151	-110.35	150.68	37.97	-58.18	1.0137	100.00	1	100.00	-147.13	0.00	0.00	0.00	0.00	0.00	0.00	0	0	0	0	100.0000
166	292.20	138.56	127.67	-56.53	1.0407	100.00	1	300.00	0.00	0.00	0.00	0.00	0.00	0.00	0.00	0	0	0	0	300.0000
179	-179.20	924.51	52.64	-51.72	1.0437	100.00	1	100.00	-238.93	0.00	0.00	0.00	0.00	0.00	0.00	0	0	0	0	100.0000
190	90.69	139.09	54.24	-20.63	1.0255	100.00	1	120.00	0.00	0.00	0.00	0.00	0.00	0.00	0.00	0	0	0	0	120.0000
192	135.80	1.32	91.61	-30.98	1.0484	100.00	1	200.00	0.00	0.00	0.00	0.00	0.00	0.00	0.00	0	0	0	0	200.0000
194	268.60	213.82	130.19	-53.53	1.0293	100.00	1	300.00	100.00	0.00	0.00	0.00	0.00	0.00	0.00	0	0	0	0	300.0000
197	292.20	1200.68	123.89	-59.54	1.1000	100.00	1	300.00	0.00	0.00	0.00	0.00	0.00	0.00	0.00	0	0	0	0	300.0000
201	5.20	194.56	2.27	-1.07	1.0191	100.00	1	5.37	0.00	0.00	0.00	0.00	0.00	0.00	0.00	0	0	0	0	5.3700
209	25.40	90.04	18.70	-6.17	1.0268	100.00	1	40.00	0.00	0.00	0.00	0.00	0.00	0.00	0.00	0	0	0	0	40.0000
214	-175.20	43.27	192.00	-52.89	1.0798	100.00	1	100.00	-233.60	0.00	0.00	0.00	0.00	0.00	0.00	0	0	0	0	100.0000
219	1171.00	0.00	937.43	-288.16	1.0566	100.00	1	2000.00	666.67	0.00	0.00	0.00	0.00	0.00	0.00	0	0	0	0	2000.0000
220	668.70	0.00	402.92	-146.95	1.0471	100.00	1	900.00	300.00	0.00	0.00	0.00	0.00	0.00	0.00	0	0	0	0	900.0000
221	296.00	706.04	183.92	-65.30	1.0306	100.00	1	400.00	133.33	0.00	0.00	0.00	0.00	0.00	0.00	0	0	0	0	400.0000
222	-147.30	651.01	12.51	-5.62	1.0305	100.00	1	100.00	-196.40	0.00	0.00	0.00	0.00	0.00	0.00	0	0	0	0	100.0000
239	-7.05	338.25	38.52	-11.24	1.0187	100.00	1	100.00	-9.40	0.00	0.00	0.00	0.00	0.00	0.00	0	0	0	0	100.0000
246	307.10	1369.81	378.08	-112.59	1.0668	100.00	1	800.00	266.67	0.00	0.00	0.00	0.00	0.00	0.00	0	0	0	0	800.0000
248	-172.00	-117.10	37.47	-12.35	1.0440	100.00	1	100.00	-229.33	0.00	0.00	0.00	0.00	0.00	0.00	0	0	0	0	100.0000
255	423.20	0.00	220.66	-85.89	1.0596	100.00	1	500.00	166.67	0.00	0.00	0.00	0.00	0.00	0.00	0	0	0	0	500.0000
262	-115.40	293.13	38.10	-11.72	1.0338	100.00	1	100.00	-153.87	0.00	0.00	0.00	0.00	0.00	0.00	0	0	0	0	100.0000
263	-34.40	100.80	5.05	-6.95	1.0287	100.00	1	100.00	-45.87	0.00	0.00	0.00	0.00	0.00	0.00	0	0	0	0	100.0000
278	-64.10	-10.85	37.70	-12.09	1.0142	100.00	1	100.00	-85.47	0.00	0.00	0.00	0.00	0.00	0.00	0	0	0	0	100.0000
282	1245.70	2062.33	924.64	-300.35	1.0776	100.00	1	2000.00	666.67	0.00	0.00	0.00	0.00	0.00	0.00	0	0	0	0	2000.0000
289	52.70	104.57	26.02	-10.81	1.0468	100.00	1	60.00	0.00	0.00	0.00	0.00	0.00	0.00	0.00	0	0	0	0	60.0000
294	250.00	99.97	45.10	-21.32	1.0034	100.00	1	480.00	160.00	0.00	0.00	0.00	0.00	0.00	0.00	0	0	0	0	480.0000
299	975.90	-756.89	721.25	-258.71	1.0392	100.00	1	1600.00	533.33	0.00	0.00	0.00	0.00	0.00	0.00	0	0	0	0	1600.0000
309	95.10	-80.87	42.62	-18.72	0.9891	100.00	1	100.00	0.00	0.00	0.00	0.00	0.00	0.00	0.00	0	0	0	0	100.0000
310	346.18	545.68	99999.00	-99999.00	1.1553	100.00	1	700.00	200.00	0.00	0.00	0.00	0.00	0.00	0.00	0	0	0	0	700.0000
313	9.60	0.00	4.83	-7.17	1.0253	100.00	1	10.08	0.00	0.00	0.00	0.00	0.00	0.00	0.00	0	0	0	0	10.0800
320	1760.00	525.39	320.04	-843.96	1.0133	100.00	1	1812.00	604.00	0.00	0.00	0.00	0.00	0.00	0.00	0	0	0	0	1812.0000
324	94.00	7.86	95.32	-27.29	1.0633	100.00	1	200.00	0.00	0.00	0.00	0.00	0.00	0.00	0.00	0	0	0	0	200.0000
325	-21.40	66.39	1.93	-1.01	1.0096	100.00	1	100.00	-28.53	0.00	0.00	0.00	0.00	0.00	0.00	0	0	0	0	100.0000
328	-77.90	-39.82	188.91	-56.14	1.0176	100.00	1	100.00	-103.87	0.00	0.00	0.00	0.00	0.00	0.00	0	0	0	0	100.0000
338	83.70	4.32	55.54	-19.16	1.0470	100.00	1	120.00	0.00	0.00	0.00	0.00	0.00	0.00	0.00	0	0	0	0	120.0000
347	50.80	154.02	33.33	-42.67	1.0209	100.00	1	53.42	0.00	0.00	0.00	0.00	0.00	0.00	0.00	0	0	0	0	53.4200
348	160.40	15.12	110.57	-36.90	1.0579	100.00	1	240.00	0.00	0.00	0.00	0.00	0.00	0.00	0.00	0	0	0	0	240.0000
352	1250.40	0.00	926.35	-297.68	1.0488	100.00	1	2000.00	666.67	0.00	0.00	0.00	0.00	0.00	0.00	0	0	0	0	2000.0000
361	238.30	61.91	186.39	-58.50	1.0595	100.00	1	400.00	133.33	0.00	0.00	0.00	0.00	0.00	0.00	0	0	0	0	400.0000
366	185.60	80.06	61.97	-120.27	1.0089	100.00	1	196.00	65.33	0.00	0.00	0.00	0.00	0.00	0.00	0	0	0	0	196.0000
372	-54.90	67.70	282.95	-84.30	1.0750	100.00	1	100.00	-73.20	0.00	0.00	0.00	0.00	0.00	0.00	0	0	0	0	100.0000
382	25.68	895.55	38.40	-11.44	1.0609	100.00	1	80.00	0.00	0.00	0.00	0.00	0.00	0.00	0.00	0	0	0	0	80.0000
389	69.00	36.93	56.73	-17.84	1.0177	100.00	1	120.00	0.00	0.00	0.00	0.00	0.00	0.00	0.00	0	0	0	0	120.0000
394	2404.40	2725.81	1224.26	-490.17	1.0631	100.00	1	2800.00	933.33	0.00	0.00	0.00	0.00	0.00	0.00	0	0	0	0	2800.0000
406	31.00	84.80	22.22	-17.35	1.0124	100.00	1	61.23	0.00	0.00	0.00	0.00	0.00	0.00	0.00	0	0	0	0	61.2300
409	-62.00	439.78	24.32	-29.67	1.0328	100.00	1	100.00	-82.67	0.00	0.00	0.00	0.00	0.00	0.00	0	0	0	0	100.0000
411	35.90	18.91	17.66	-7.27	1.0325	100.00	1	40.00	0.00	0.00	0.00	0.00	0.00	0.00	0.00	0	0	0	0	40.0000
413	231.00	-271.91	124.12	-49.84	1.0484	100.00	1	280.00	0.00	0.00	0.00	0.00	0.00	0.00	0.00	0	0	0	0	280.0000
423	-19.20	117.32	5.22	-2.60	1.0303	100.00	1	100.00	-25.60	0.00	0.00	0.00	0.00	0.00	0.00	0	0	0	0	100.0000
424	636.30	-239.44	304.38	-125.48	1.0512	100.00	1	700.00	233.33	0.00	0.00	0.00	0.00	0.00	0.00	0	0	0	0	700.0000
433	436.00	0.00	217.18	-89.22	1.0249	100.00	1	500.00	166.67	0.00	0.00	0.00	0.00	0.00	0.00	0	0	0	0	500.0000
434	-2.80	128.08	2.75	-3.25	1.0380	100.00	1	100.00	-3.73	0.00	0.00	0.00	0.00	0.00	0.00	0	0	0	0	100.0000
438	74.00	1208.20	45.10	-16.18	1.0387	100.00	1	100.00	0.00	0.00	0.00	0.00	0.00	0.00	0.00	0	0	0	0	100.0000
439	308.60	13.62	175.16	-69.21	1.0725	100.00	1	400.00	0.00	0.00	0.00	0.00	0.00	0.00	0.00	0	0	0	0	400.0000
440	83.10	21.08	55.73	-19.01	1.0281	100.00	1	120.00	0.00	0.00	0.00	0.00	0.00	0.00	0.00	0	0	0	0	120.0000
442	-40.35	8.69	1.95	-0.93	1.0117	100.00	1	100.00	-53.80	0.00	0.00	0.00	0.00	0.00	0.00	0	0	0	0	100.0000
447	37.70	83.05	16.84	-8.04	1.0352	100.00	1	40.00	0.00	0.00	0.00	0.00	0.00	0.00	0.00	0	0	0	0	40.0000
452	-56.80	0.00	37.86	-11.94	1.0134	100.00	1	100.00	-75.73	0.00	0.00	0.00	0.00	0.00	0.00	0	0	0	0	100.0000
453	260.10	0.00	257.23	-74.40	1.0247	100.00	1	540.00	0.00	0.00	0.00	0.00	0.00	0.00	0.00	0	0	0	0	540.0000
456	-28.08	52.56	44.80	-39.81	0.9998	100.00	1	100.00	-37.44	0.00	0.00	0.00	0.00	0.00	0.00	0	0	0	0	100.0000
484	229.50	711.08	132.41	-50.85	1.0541	100.00	1	300.00	0.00	0.00	0.00	0.00	0.00	0.00	0.00	0	0	0	0	300.0000
489	-107.40	91.53	6.28	-4.82	1.0080	100.00	1	100.00	-143.20	0.00	0.00	0.00	0.00	0.00	0.00	0	0	0	0	100.0000
491	105.40	190.47	94.56	-28.10	1.0332	100.00	1	200.00	0.00	0.00	0.00	0.00	0.00	0.00	0.00	0	0	0	0	200.0000
505	110.60	8.53	37.34	-58.33	1.0222	100.00	1	116.03	0.00	0.00	0.00	0.00	0.00	0.00	0.00	0	0	0	0	116.0300
511	101.40	35.33	94.38	-28.04	1.0816	100.00	1	200.00	0.00	0.00	0.00	0.00	0.00	0.00	0.00	0	0	0	0	200.0000
515	324.82	116.74	72.50	-27.24	1.0452	100.00	1	700.00	200.00	0.00	0.00	0.00	0.00	0.00	0.00	0	0	0	0	700.0000
516	539.40	0.00	261.79	-106.67	1.0713	100.00	1	600.00	200.00	0.00	0.00	0.00	0.00	0.00	0.00	0	0	0	0	600.0000
518	-410.30	431.97	85.63	-37.21	1.0676	100.00	1	100.00	-547.07	0.00	0.00	0.00	0.00	0.00	0.00	0	0	0	0	100.0000
524	69.00	0.00	30.15	-43.07	1.0470	100.00	1	72.45	0.00	0.00	0.00	0.00	0.00	0.00	0.00	0	0	0	0	72.4500
541	118.20	46.65	7.81	-27.19	1.0382	100.00	1	124.19	0.00	0.00	0.00	0.00	0.00	0.00	0.00	0	0	0	0	124.1900
564	-51.67	858.22	18.47	-19.35	1.0670	100.00	1	100.00	-68.89	0.00	0.00	0.00	0.00	0.00	0.00	0	0	0	0	100.0000
578	-110.30	-3.99	25.88	-11.01	1.0421	100.00	1	100.00	-147.07	0.00	0.00	0.00	0.00	0.00	0.00	0	0	0	0	100.0000
583	-270.00	484.24	17.88	-7.03	1.0486	100.00	1	100.00	-360.00	0.00	0.00	0.00	0.00	0.00	0.00	0	0	0	0	100.0000
587	246.00	0.00	185.56	-59.39	1.0401	100.00	1	400.00	133.33	0.00	0.00	0.00	0.00	0.00	0.00	0	0	0	0	400.0000
590	100.70	0.00	380.31	-110.08	1.0650	100.00	1	300.00	67.13	0.00	0.00	0.00	0.00	0.00	0.00	0	0	0	0	300.0000
615	38.20	-18.69	17.09	-7.79	1.0686	100.00	1	40.00	0.00	0.00	0.00	0.00	0.00	0.00	0.00	0	0	0	0	40.0000
616	379.20	544.69	217.90	-81.16	1.0448	100.00	1	480.00	160.00	0.00	0.00	0.00	0.00	0.00	0.00	0	0	0	0	480.0000
618	670.30	31.68	351.18	-139.11	1.0228	100.00	1	800.00	266.67	0.00	0.00	0.00	0.00	0.00	0.00	0	0	0	0	800.0000
628	152.40	-157.73	78.79	-31.69	0.9821	100.00	1	180.00	0.00	0.00	0.00	0.00	0.00	0.00	0.00	0	0	0	0	180.0000
636	101.89	269.14	52.99	-21.87	1.0424	100.00	1	120.00	0.00	0.00	0.00	0.00	0.00	0.00	0.00	0	0	0	0	120.0000
637	21.30	63.75	11.20	-8.44	1.0311	100.00	1	22.32	0.00	0.00	0.00	0.00	0.00	0.00	0.00	0	0	0	0	22.3200
639	-46.20	910.28	135.52	-38.90	1.0335	100.00	1	100.00	-61.60	0.00	0.00	0.00	0.00	0.00	0.00	0	0	0	0	100.0000
642	63.33	84.56	90.13	-93.03	1.0314	100.00	1	276.09	0.00	0.00	0.00	0.00	0.00	0.00	0.00	0	0	0	0	276.0900
648	47.20	0.00	37.95	-11.87	1.0275	100.00	1	80.00	0.00	0.00	0.00	0.00	0.00	0.00	0.00	0	0	0	0	80.0000
672	67.00	1.21	71.32	-62.92	1.0212	100.00	1	205.81	0.00	0.00	0.00	0.00	0.00	0.00	0.00	0	0	0	0	205.8100
682	37.40	0.00	38.77	-11.06	1.0608	100.00	1	80.00	0.00	0.00	0.00	0.00	0.00	0.00	0.00	0	0	0	0	80.0000
686	-21.65	-54.47	34.75	-34.26	1.0139	100.00	1	100.00	-28.86	0.00	0.00	0.00	0.00	0.00	0.00	0	0	0	0	100.0000
692	274.80	0.00	182.17	-62.79	1.0590	100.00	1	400.00	133.33	0.00	0.00	0.00	0.00	0.00	0.00	0	0	0	0	400.0000
697	634.80	35.45	357.40	-132.75	1.0317	100.00	1	800.00	266.67	0.00	0.00	0.00	0.00	0.00	0.00	0	0	0	0	800.0000
698	274.80	-34.05	129.94	-53.91	0.9997	100.00	1	300.00	100.00	0.00	0.00	0.00	0.00	0.00	0.00	0	0	0	0	300.0000
709	16.00	794.30	22.23	-20.83	1.0689	100.00	1	65.30	0.00	0.00	0.00	0.00	0.00	0.00	0.00	0	0	0	0	65.3000
711	27.80	476.29	377.01	-113.63	1.0701	100.00	1	100.00	18.53	0.00	0.00	0.00	0.00	0.00	0.00	0	0	0	0	100.0000
713	99.30	289.79	53.98	-20.79	1.0348	100.00	1	120.00	0.00	0.00	0.00	0.00	0.00	0.00	0.00	0	0	0	0	120.0000
714	453.40	0.00	376.36	-114.08	1.0650	100.00	1	800.00	266.67	0.00	0.00	0.00	0.00	0.00	0.00	0	0	0	0	800.0000
715	323.10	299.36	66.42	-179.95	1.0216	100.00	1	366.00	122.00	0.00	0.00	0.00	0.00	0.00	0.00	0	0	0	0	366.0000
727	384.26	512.28	379.61	-111.09	1.0701	100.00	1	800.00	266.67	0.00	0.00	0.00	0.00	0.00	0.00	0	0	0	0	800.0000
728	70.80	107.10	35.73	-44.31	1.0304	100.00	1	74.28	0.00	0.00	0.00	0.00	0.00	0.00	0.00	0	0	0	0	74.2800
735	170.00	56.98	89.94	-122.06	1.0266	100.00	1	178.50	0.00	0.00	0.00	0.00	0.00	0.00	0.00	0	0	0	0	178.5000
738	90.79	676.34	107.86	-95.15	1.0334	100.00	1	311.39	34.60	0.00	0.00	0.00	0.00	0.00	0.00	0	0	0	0	311.3900
739	465.70	510.61	212.97	-93.45	1.0354	100.00	1	500.00	166.67	0.00	0.00	0.00	0.00	0.00	0.00	0	0	0	0	500.0000
749	198.88	232.88	105.69	-43.84	1.0535	100.00	1	240.00	0.00	0.00	0.00	0.00	0.00	0.00	0.00	0	0	0	0	240.0000
751	65.90	34.37	136.94	-47.24	1.0205	100.00	1	300.00	0.00	0.00	0.00	0.00	0.00	0.00	0.00	0	0	0	0	300.0000
757	116.70	271.43	51.30	-23.41	1.0140	100.00	1	120.00	0.00	0.00	0.00	0.00	0.00	0.00	0.00	0	0	0	0	120.0000
763	37.30	0.00	27.88	-8.97	1.0429	100.00	1	60.00	0.00	0.00	0.00	0.00	0.00	0.00	0.00	0	0	0	0	60.0000
764	138.30	-3.79	174.17	-71.12	1.0482	100.00	1	400.00	133.33	0.00	0.00	0.00	0.00	0.00	0.00	0	0	0	0	400.0000
765	170.70	0.00	76.76	-33.84	1.0172	100.00	1	180.00	0.00	0.00	0.00	0.00	0.00	0.00	0.00	0	0	0	0	180.0000
774	134.40	164.73	81.57	-60.74	1.0390	100.00	1	141.12	0.00	0.00	0.00	0.00	0.00	0.00	0.00	0	0	0	0	141.1200
776	-111.40	180.24	18.16	-6.73	1.0240	100.00	1	100.00	-148.53	0.00	0.00	0.00	0.00	0.00	0.00	0	0	0	0	100.0000
778	16.50	10.73	12.37	-9.36	1.0478	100.00	1	33.58	0.00	0.00	0.00	0.00	0.00	0.00	0.00	0	0	0	0	33.5800
779	37.80	0.00	17.34	-7.58	1.0393	100.00	1	45.00	0.00	0.00	0.00	0.00	0.00	0.00	0.00	0	0	0	0	45.0000
780	50.80	0.00	37.43	-12.32	1.0020	100.00	1	80.00	0.00	0.00	0.00	0.00	0.00	0.00	0.00	0	0	0	0	80.0000
791	569.74	821.23	567.63	-167.48	1.0521	100.00	1	1200.00	400.00	0.00	0.00	0.00	0.00	0.00	0.00	0	0	0	0	1200.0000
795	58.40	0.00	36.75	-13.04	1.0419	100.00	1	80.00	0.00	0.00	0.00	0.00	0.00	0.00	0.00	0	0	0	0	80.0000
796	31.60	75.24	39.00	-10.74	1.0160	100.00	1	80.00	0.00	0.00	0.00	0.00	0.00	0.00	0.00	0	0	0	0	80.0000
803	-89.20	89.90	74.03	-25.54	1.0466	100.00	1	100.00	-118.93	0.00	0.00	0.00	0.00	0.00	0.00	0	0	0	0	100.0000
807	1597.50	656.64	864.47	-360.97	1.0535	100.00	1	2000.00	666.67	0.00	0.00	0.00	0.00	0.00	0.00	0	0	0	0	2000.0000
813	505.60	322.09	309.08	-290.93	1.0370	100.00	1	602.00	200.67	0.00	0.00	0.00	0.00	0.00	0.00	0	0	0	0	602.0000
823	1274.20	0.00	926.68	-298.31	1.0391	100.00	1	2000.00	666.67	0.00	0.00	0.00	0.00	0.00	0.00	0	0	0	0	2000.0000
828	55.90	0.00	20.87	-22.43	1.0444	100.00	1	58.70	0.00	0.00	0.00	0.00	0.00	0.00	0.00	0	0	0	0	58.7000
831	85.20	118.76	55.59	-19.18	1.0033	100.00	1	120.00	0.00	0.00	0.00	0.00	0.00	0.00	0.00	0	0	0	0	120.0000
832	507.00	0.00	264.71	-102.83	1.0046	100.00	1	600.00	200.00	0.00	0.00	0.00	0.00	0.00	0.00	0	0	0	0	600.0000
837	44.00	0.00	27.19	-9.66	1.0227	100.00	1	60.00	0.00	0.00	0.00	0.00	0.00	0.00	0.00	0	0	0	0	60.0000
844	97.50	0.00	54.35	-20.47	1.0644	100.00	1	120.00	0.00	0.00	0.00	0.00	0.00	0.00	0.00	0	0	0	0	120.0000
848	4.03	11.24	49.63	-38.12	1.0114	100.00	1	100.00	2.69	0.00	0.00	0.00	0.00	0.00	0.00	0	0	0	0	100.0000
849	8.70	102.31	6.45	-4.91	1.0373	100.00	1	17.57	0.00	0.00	0.00	0.00	0.00	0.00	0.00	0	0	0	0	17.5700
851	59.56	132.30	96.64	-27.81	1.0188	100.00	1	200.00	0.00	0.00	0.00	0.00	0.00	0.00	0.00	0	0	0	0	200.0000
858	855.60	-9.26	440.67	-172.15	1.0288	100.00	1	1000.00	333.33	0.00	0.00	0.00	0.00	0.00	0.00	0	0	0	0	1000.0000
861	55.80	142.22	57.98	-16.68	1.0508	100.00	1	120.00	0.00	0.00	0.00	0.00	0.00	0.00	0.00	0	0	0	0	120.0000
875	343.50	149.41	228.16	-78.19	1.0390	100.00	1	500.00	166.67	0.00	0.00	0.00	0.00	0.00	0.00	0	0	0	0	500.0000
888	181.98	374.63	138.60	-45.27	1.0376	100.00	1	300.00	100.00	0.00	0.00	0.00	0.00	0.00	0.00	0	0	0	0	300.0000
891	1702.80	226.56	1097.41	-373.91	1.0630	100.00	1	2400.00	800.00	0.00	0.00	0.00	0.00	0.00	0.00	0	0	0	0	2400.0000
894	264.67	0.00	141.93	-57.74	1.0542	100.00	1	320.00	0.00	0.00	0.00	0.00	0.00	0.00	0.00	0	0	0	0	320.0000
896	-2.70	0.00	8.60	-11.40	1.0220	100.00	1	100.00	-3.60	0.00	0.00	0.00	0.00	0.00	0.00	0	0	0	0	100.0000
913	1249.40	0.00	772.11	-269.94	1.0265	100.00	1	1700.00	566.67	0.00	0.00	0.00	0.00	0.00	0.00	0	0	0	0	1700.0000
916	230.20	2.19	134.45	-49.76	1.0221	100.00	1	300.00	0.00	0.00	0.00	0.00	0.00	0.00	0.00	0	0	0	0	300.0000
917	32.00	57.78	18.22	-6.73	1.0616	100.00	1	40.00	0.00	0.00	0.00	0.00	0.00	0.00	0.00	0	0	0	0	40.0000
926	420.00	148.71	201.12	-87.96	1.0081	100.00	1	472.00	157.33	0.00	0.00	0.00	0.00	0.00	0.00	0	0	0	0	472.0000
927	27.40	368.08	28.69	-8.16	1.0679	100.00	1	60.00	0.00	0.00	0.00	0.00	0.00	0.00	0.00	0	0	0	0	60.0000
930	679.60	433.56	406.66	-144.75	1.0582	100.00	1	900.00	300.00	0.00	0.00	0.00	0.00	0.00	0.00	0	0	0	0	900.0000
972	1221.20	36.49	934.73	-291.52	1.0786	100.00	1	2000.00	666.67	0.00	0.00	0.00	0.00	0.00	0.00	0	0	0	0	2000.0000
974	83.89	519.68	54.36	-20.21	1.0330	100.00	1	120.00	0.00	0.00	0.00	0.00	0.00	0.00	0.00	0	0	0	0	120.0000
976	21.30	-4.30	36.02	-35.35	1.0243	100.00	1	107.83	0.00	0.00	0.00	0.00	0.00	0.00	0.00	0	0	0	0	107.8300
978	14.90	135.63	6.43	-2.99	1.0173	100.00	1	15.15	0.00	0.00	0.00	0.00	0.00	0.00	0.00	0	0	0	0	15.1500
983	1034.80	862.91	948.36	-277.27	1.0780	100.00	1	2000.00	666.67	0.00	0.00	0.00	0.00	0.00	0.00	0	0	0	0	2000.0000
984	1029.20	0.00	738.93	-240.84	1.0320	100.00	1	1600.00	533.33	0.00	0.00	0.00	0.00	0.00	0.00	0	0	0	0	1600.0000
991	21.68	7.26	16.83	-8.05	1.0016	100.00	1	40.00	0.00	0.00	0.00	0.00	0.00	0.00	0.00	0	0	0	0	40.0000
992	14.96	189.18	25.97	-10.87	1.0303	100.00	1	60.00	0.00	0.00	0.00	0.00	0.00	0.00	0.00	0	0	0	0	60.0000
993	-136.90	332.79	17.85	-7.07	1.0372	100.00	1	100.00	-182.53	0.00	0.00	0.00	0.00	0.00	0.00	0	0	0	0	100.0000
1001	92.10	2317.52	55.02	-19.81	1.0699	100.00	1	120.00	0.00	0.00	0.00	0.00	0.00	0.00	0.00	0	0	0	0	120.0000
1002	171.00	52.89	89.55	-35.15	1.0384	100.00	1	200.00	0.00	0.00	0.00	0.00	0.00	0.00	0.00	0	0	0	0	200.0000
1004	86.40	0.00	43.99	-17.40	0.9994	100.00	1	100.00	0.00	0.00	0.00	0.00	0.00	0.00	0.00	0	0	0	0	100.0000
1021	-179.30	81.72	58.34	-16.23	1.0123	100.00	1	100.00	-239.07	0.00	0.00	0.00	0.00	0.00	0.00	0	0	0	0	100.0000
1029	138.60	268.78	90.64	-31.73	1.0379	100.00	1	200.00	0.00	0.00	0.00	0.00	0.00	0.00	0.00	0	0	0	0	200.0000
1030	164.94	35.26	71.66	-27.89	1.0078	100.00	1	400.00	100.00	0.00	0.00	0.00	0.00	0.00	0.00	0	0	0	0	400.0000
1036	202.50	182.44	137.39	-46.45	1.0371	100.00	1	300.00	100.00	0.00	0.00	0.00	0.00	0.00	0.00	0	0	0	0	300.0000
1043	829.50	0.00	387.88	-163.40	1.0275	100.00	1	900.00	300.00	0.00	0.00	0.00	0.00	0.00	0.00	0	0	0	0	900.0000
1050	337.91	116.66	173.50	-71.79	1.0554	100.00	1	518.72	252.05	0.00	0.00	0.00	0.00	0.00	0.00	0	0	0	0	518.7200
1082	364.40	-624.04	171.62	-73.50	1.0279	100.00	1	400.00	133.33	0.00	0.00	0.00	0.00	0.00	0.00	0	0	0	0	400.0000
1083	91.80	194.89	54.91	-19.88	1.0505	100.00	1	120.00	0.00	0.00	0.00	0.00	0.00	0.00	0.00	0	0	0	0	120.0000
1088	4.60	218.30	8.06	-3.66	1.0259	100.00	1	45.99	0.00	0.00	0.00	0.00	0.00	0.00	0.00	0	0	0	0	45.9900
1093	837.00	-1.64	550.69	-185.15	1.0246	100.00	1	1200.00	400.00	0.00	0.00	0.00	0.00	0.00	0.00	0	0	0	0	1200.0000
1097	17.50	19.02	6.17	-6.64	1.0136	100.00	1	18.38	0.00	0.00	0.00	0.00	0.00	0.00	0.00	0	0	0	0	18.3800
1098	93.35	712.79	91.42	-31.24	1.1044	100.00	1	200.00	66.67	0.00	0.00	0.00	0.00	0.00	0.00	0	0	0	0	200.0000
1100	58.20	0.00	36.80	-13.01	1.0423	100.00	1	80.00	0.00	0.00	0.00	0.00	0.00	0.00	0.00	0	0	0	0	80.0000
1102	-124.15	299.89	38.05	-11.59	1.0482	100.00	1	100.00	-165.54	0.00	0.00	0.00	0.00	0.00	0.00	0	0	0	0	100.0000
1103	405.69	339.32	376.66	-112.66	1.0435	100.00	1	800.00	266.67	0.00	0.00	0.00	0.00	0.00	0.00	0	0	0	0	800.0000
1117	744.10	0.00	307.47	-487.11	1.0092	100.00	1	864.00	288.00	0.00	0.00	0.00	0.00	0.00	0.00	0	0	0	0	864.0000
1119	298.70	166.06	126.49	-57.33	1.0447	100.00	1	300.00	100.00	0.00	0.00	0.00	0.00	0.00	0.00	0	0	0	0	300.0000
1121	289.79	360.26	158.20	-62.81	1.0175	100.00	1	360.00	0.00	0.00	0.00	0.00	0.00	0.00	0.00	0	0	0	0	360.0000
1122	75.20	0.00	68.00	-56.08	1.0439	100.00	1	190.28	0.00	0.00	0.00	0.00	0.00	0.00	0.00	0	0	0	0	190.2800
1125	129.60	197.62	114.57	-34.74	1.0432	100.00	1	240.00	0.00	0.00	0.00	0.00	0.00	0.00	0.00	0	0	0	0	240.0000
1131	667.50	0.00	407.66	-143.61	1.0370	100.00	1	900.00	300.00	0.00	0.00	0.00	0.00	0.00	0.00	0	0	0	0	900.0000
1138	930.30	0.00	432.44	-180.70	1.0888	100.00	1	1000.00	333.33	0.00	0.00	0.00	0.00	0.00	0.00	0	0	0	0	1000.0000
1139	175.48	0.00	107.89	-41.50	1.0542	100.00	1	240.00	0.00	0.00	0.00	0.00	0.00	0.00	0.00	0	0	0	0	240.0000
1145	173.47	0.00	153.07	-144.24	1.0404	100.00	1	452.53	37.71	0.00	0.00	0.00	0.00	0.00	0.00	0	0	0	0	452.5300
1173	-124.70	84.43	1.85	-0.88	1.0185	100.00	1	100.00	-166.27	0.00	0.00	0.00	0.00	0.00	0.00	0	0	0	0	100.0000
1174	26.80	9.01	18.61	-6.28	1.0028	100.00	1	40.00	0.00	0.00	0.00	0.00	0.00	0.00	0.00	0	0	0	0	40.0000
1175	309.54	221.26	108.35	-39.12	1.0383	100.00	1	700.00	200.00	0.00	0.00	0.00	0.00	0.00	0.00	0	0	0	0	700.0000
1176	6.70	199.30	94.13	-28.09	1.0162	100.00	1	100.00	4.46	0.00	0.00	0.00	0.00	0.00	0.00	0	0	0	0	100.0000
1184	329.20	0.00	178.02	-67.55	1.0374	100.00	1	400.00	0.00	0.00	0.00	0.00	0.00	0.00	0.00	0	0	0	0	400.0000
1220	107.40	26.01	84.07	-26.48	1.0087	100.00	1	180.00	0.00	0.00	0.00	0.00	0.00	0.00	0.00	0	0	0	0	180.0000
1225	282.80	856.40	118.84	-55.64	1.0517	100.00	1	290.43	0.00	0.00	0.00	0.00	0.00	0.00	0.00	0	0	0	0	290.4300
1237	1504.80	-18.66	906.61	-319.44	1.1039	100.00	1	2000.00	666.67	0.00	0.00	0.00	0.00	0.00	0.00	0	0	0	0	2000.0000
1241	46.13	725.54	22.29	-20.98	1.0196	100.00	1	65.63	0.00	0.00	0.00	0.00	0.00	0.00	0.00	0	0	0	0	65.6300
...
];

%% generator cost data
mpc.gencost = [
2	0	0	4	0.0000	0.000	1.000	0.00
2	0	0	4	0.0000	0.000	1.000	0.00
2	0	0	4	0.0000	0.000	1.000	0.00
2	0	0	4	0.0000	0.000	1.000	0.00
2	0	0	4	0.0000	0.000	1.000	0.00
2	0	0	4	0.0000	0.000	1.000	0.00
2	0	0	4	0.0000	0.000	1.000	0.00
2	0	0	4	0.0000	0.000	1.000	0.00
2	0	0	4	0.0000	0.000	1.000	0.00
2	0	0	4	0.0000	0.000	1.000	0.00
2	0	0	4	0.0000	0.000	1.000	0.00
2	0	0	4	0.0000	0.000	1.000	0.00
2	0	0	4	0.0000	0.000	1.000	0.00
2	0	0	4	0.0000	0.000	1.000	0.00
2	0	0	4	0.0000	0.000	1.000	0.00
2	0	0	4	0.0000	0.000	1.000	0.00
2	0	0	4	0.0000	0.000	1.000	0.00
2	0	0	4	0.0000	0.000	1.000	0.00
2	0	0	4	0.0000	0.000	1.000	0.00
2	0	0	4	0.0000	0.000	1.000	0.00
2	0	0	4	0.0000	0.000	1.000	0.00
2	0	0	4	0.0000	0.000	1.000	0.00
2	0	0	4	0.0000	0.000	1.000	0.00
2	0	0	4	0.0000	0.000	1.000	0.00
2	0	0	4	0.0000	0.000	1.000	0.00
2	0	0	4	0.0000	0.000	1.000	0.00
2	0	0	4	0.0000	0.000	1.000	0.00
2	0	0	4	0.0000	0.000	1.000	0.00
2	0	0	4	0.0000	0.000	1.000	0.00
2	0	0	4	0.0000	0.000	1.000	0.00
2	0	0	4	0.0000	0.000	1.000	0.00
2	0	0	4	0.0000	0.000	1.000	0.00
2	0	0	4	0.0000	0.000	1.000	0.00
2	0	0	4	0.0000	0.000	1.000	0.00
2	0	0	4	0.0000	0.000	1.000	0.00
2	0	0	4	0.0000	0.000	1.000	0.00
2	0	0	4	0.0000	0.000	1.000	0.00
2	0	0	4	0.0000	0.000	1.000	0.00
2	0	0	4	0.0000	0.000	1.000	0.00
2	0	0	4	0.0000	0.000	1.000	0.00
2	0	0	4	0.0000	0.000	1.000	0.00
2	0	0	4	0.0000	0.000	1.000	0.00
2	0	0	4	0.0000	0.000	1.000	0.00
2	0	0	4	0.0000	0.000	1.000	0.00
2	0	0	4	0.0000	0.000	1.000	0.00
2	0	0	4	0.0000	0.000	1.000	0.00
2	0	0	4	0.0000	0.000	1.000	0.00
2	0	0	4	0.0000	0.000	1.000	0.00
2	0	0	4	0.0000	0.000	1.000	0.00
2	0	0	4	0.0000	0.000	1.000	0.00
2	0	0	4	0.0000	0.000	1.000	0.00
2	0	0	4	0.0000	0.000	1.000	0.00
2	0	0	4	0.0000	0.000	1.000	0.00
2	0	0	4	0.0000	0.000	1.000	0.00
2	0	0	4	0.0000	0.000	1.000	0.00
2	0	0	4	0.0000	0.000	1.000	0.00
2	0	0	4	0.0000	0.000	1.000	0.00
2	0	0	4	0.0000	0.000	1.000	0.00
2	0	0	4	0.0000	0.000	1.000	0.00
2	0	0	4	0.0000	0.000	1.000	0.00
2	0	0	4	0.0000	0.000	1.000	0.00
2	0	0	4	0.0000	0.000	1.000	0.00
2	0	0	4	0.0000	0.000	1.000	0.00
2	0	0	4	0.0000	0.000	1.000	0.00
2	0	0	4	0.0000	0.000	1.000	0.00
2	0	0	4	0.0000	0.000	1.000	0.00
2	0	0	4	0.0000	0.000	1.000	0.00
2	0	0	4	0.0000	0.000	1.000	0.00
2	0	0	4	0.0000	0.000	1.000	0.00
2	0	0	4	0.0000	0.000	1.000	0.00
2	0	0	4	0.0000	0.000	1.000	0.00
2	0	0	4	0.0000	0.000	1.000	0.00
2	0	0	4	0.0000	0.000	1.000	0.00
2	0	0	4	0.0000	0.000	1.000	0.00
2	0	0	4	0.0000	0.000	1.000	0.00
2	0	0	4	0.0000	0.000	1.000	0.00
2	0	0	4	0.0000	0.000	1.000	0.00
2	0	0	4	0.0000	0.000	1.000	0.00
2	0	0	4	0.0000	0.000	1.000	0.00
2	0	0	4	0.0000	0.000	1.000	0.00
2	0	0	4	0.0000	0.000	1.000	0.00
2	0	0	4	0.0000	0.000	1.000	0.00
2	0	0	4	0.0000	0.000	1.000	0.00
2	0	0	4	0.0000	0.000	1.000	0.00
2	0	0	4	0.0000	0.000	1.000	0.00
2	0	0	4	0.0000	0.000	1.000	0.00
2	0	0	4	0.0000	0.000	1.000	0.00
2	0	0	4	0.0000	0.000	1.000	0.00
2	0	0	4	0.0000	0.000	1.000	0.00
2	0	0	4	0.0000	0.000	1.000	0.00
2	0	0	4	0.0000	0.000	1.000	0.00
2	0	0	4	0.0000	0.000	1.000	0.00
2	0	0	4	0.0000	0.000	1.000	0.00
2	0	0	4	0.0000	0.000	1.000	0.00
2	0	0	4	0.0000	0.000	1.000	0.00
2	0	0	4	0.0000	0.000	1.000	0.00
2	0	0	4	0.0000	0.000	1.000	0.00
2	0	0	4	0.0000	0.000	1.000	0.00
2	0	0	4	0.0000	0.000	1.000	0.00
2	0	0	4	0.0000	0.000	1.000	0.00
2	0	0	4	0.0000	0.000	1.000	0.00
2	0	0	4	0.0000	0.000	1.000	0.00
2	0	0	4	0.0000	0.000	1.000	0.00
2	0	0	4	0.0000	0.000	1.000	0.00
2	0	0	4	0.0000	0.000	1.000	0.00
2	0	0	4	0.0000	0.000	1.000	0.00
2	0	0	4	0.0000	0.000	1.000	0.00
2	0	0	4	0.0000	0.000	1.000	0.00
2	0	0	4	0.0000	0.000	1.000	0.00
2	0	0	4	0.0000	0.000	1.000	0.00
2	0	0	4	0.0000	0.000	1.000	0.00
2	0	0	4	0.0000	0.000	1.000	0.00
2	0	0	4	0.0000	0.000	1.000	0.00
2	0	0	4	0.0000	0.000	1.000	0.00
2	0	0	4	0.0000	0.000	1.000	0.00
2	0	0	4	0.0000	0.000	1.000	0.00
2	0	0	4	0.0000	0.000	1.000	0.00
2	0	0	4	0.0000	0.000	1.000	0.00
2	0	0	4	0.0000	0.000	1.000	0.00
2	0	0	4	0.0000	0.000	1.000	0.00
2	0	0	4	0.0000	0.000	1.000	0.00
2	0	0	4	0.0000	0.000	1.000	0.00
2	0	0	4	0.0000	0.000	1.000	0.00
2	0	0	4	0.0000	0.000	1.000	0.00
2	0	0	4	0.0000	0.000	1.000	0.00
2	0	0	4	0.0000	0.000	1.000	0.00
2	0	0	4	0.0000	0.000	1.000	0.00
2	0	0	4	0.0000	0.000	1.000	0.00
2	0	0	4	0.0000	0.000	1.000	0.00
2	0	0	4	0.0000	0.000	1.000	0.00
2	0	0	4	0.0000	0.000	1.000	0.00
2	0	0	4	0.0000	0.000	1.000	0.00
2	0	0	4	0.0000	0.000	1.000	0.00
2	0	0	4	0.0000	0.000	1.000	0.00
2	0	0	4	0.0000	0.000	1.000	0.00
2	0	0	4	0.0000	0.000	1.000	0.00
2	0	0	4	0.0000	0.000	1.000	0.00
2	0	0	4	0.0000	0.000	1.000	0.00
2	0	0	4	0.0000	0.000	1.000	0.00
2	0	0	4	0.0000	0.000	1.000	0.00
2	0	0	4	0.0000	0.000	1.000	0.00
2	0	0	4	0.0000	0.000	1.000	0.00
2	0	0	4	0.0000	0.000	1.000	0.00
2	0	0	4	0.0000	0.000	1.000	0.00
2	0	0	4	0.0000	0.000	1.000	0.00
2	0	0	4	0.0000	0.000	1.000	0.00
2	0	0	4	0.0000	0.000	1.000	0.00
2	0	0	4	0.0000	0.000	1.000	0.00
2	0	0	4	0.0000	0.000	1.000	0.00
2	0	0	4	0.0000	0.000	1.000	0.00
2	0	0	4	0.0000	0.000	1.000	0.00
2	0	0	4	0.0000	0.000	1.000	0.00
2	0	0	4	0.0000	0.000	1.000	0.00
2	0	0	4	0.0000	0.000	1.000	0.00
2	0	0	4	0.0000	0.000	1.000	0.00
2	0	0	4	0.0000	0.000	1.000	0.00
2	0	0	4	0.0000	0.000	1.000	0.00
2	0	0	4	0.0000	0.000	1.000	0.00
2	0	0	4	0.0000	0.000	1.000	0.00
2	0	0	4	0.0000	0.000	1.000	0.00
2	0	0	4	0.0000	0.000	1.000	0.00
2	0	0	4	0.0000	0.000	1.000	0.00
2	0	0	4	0.0000	0.000	1.000	0.00
2	0	0	4	0.0000	0.000	1.000	0.00
2	0	0	4	0.0000	0.000	1.000	0.00
2	0	0	4	0.0000	0.000	1.000	0.00
2	0	0	4	0.0000	0.000	1.000	0.00
2	0	0	4	0.0000	0.000	1.000	0.00
2	0	0	4	0.0000	0.000	1.000	0.00
2	0	0	4	0.0000	0.000	1.000	0.00
2	0	0	4	0.0000	0.000	1.000	0.00
2	0	0	4	0.0000	0.000	1.000	0.00
2	0	0	4	0.0000	0.000	1.000	0.00
2	0	0	4	0.0000	0.000	1.000	0.00
2	0	0	4	0.0000	0.000	1.000	0.00
2	0	0	4	0.0000	0.000	1.000	0.00
2	0	0	4	0.0000	0.000	1.000	0.00
2	0	0	4	0.0000	0.000	1.000	0.00
2	0	0	4	0.0000	0.000	1.000	0.00
2	0	0	4	0.0000	0.000	1.000	0.00
2	0	0	4	0.0000	0.000	1.000	0.00
2	0	0	4	0.0000	0.000	1.000	0.00
2	0	0	4	0.0000	0.000	1.000	0.00
2	0	0	4	0.0000	0.000	1.000	0.00
2	0	0	4	0.0000	0.000	1.000	0.00
2	0	0	4	0.0000	0.000	1.000	0.00
2	0	0	4	0.0000	0.000	1.000	0.00
2	0	0	4	0.0000	0.000	1.000	0.00
2	0	0	4	0.0000	0.000	1.000	0.00
2	0	0	4	0.0000	0.000	1.000	0.00
2	0	0	4	0.0000	0.000	1.000	0.00
2	0	0	4	0.0000	0.000	1.000	0.00
2	0	0	4	0.0000	0.000	1.000	0.00
2	0	0	4	0.0000	0.000	1.000	0.00
2	0	0	4	0.0000	0.000	1.000	0.00
2	0	0	4	0.0000	0.000	1.000	0.00
2	0	0	4	0.0000	0.000	1.000	0.00
2	0	0	4	0.0000	0.000	1.000	0.00
2	0	0	4	0.0000	0.000	1.000	0.00
2	0	0	4	0.0000	0.000	1.000	0.00
...
];

%% branch data
mpc.branch = [
2316	1	0.000059	0.022767	0.00000	0.00	0.00	0.00	1.00687	0.000	1	0.00	0.00	0.00	0.00	0.00	0.00
1	7639	0.007750	0.035010	0.00000	400.00	0.00	0.00	0.00000	0.000	1	0.00	0.00	0.00	0.00	0.00	0.00
1	7835	0.019810	0.091539	0.00000	476.00	0.00	0.00	0.00000	0.000	1	0.00	0.00	0.00	0.00	0.00	0.00
1	7835	0.019440	0.093479	0.00000	457.00	0.00	0.00	0.00000	0.000	1	0.00	0.00	0.00	0.00	0.00	0.00
2	2447	0.000340	0.001620	0.00000	0.00	0.00	0.00	0.00000	0.000	1	0.00	0.00	0.00	0.00	0.00	0.00
2	4898	0.000510	0.002420	0.00000	0.00	0.00	0.00	0.00000	0.000	1	0.00	0.00	0.00	0.00	0.00	0.00
3	8189	0.010130	0.042380	0.00000	495.00	0.00	0.00	0.00000	0.000	1	0.00	0.00	0.00	0.00	0.00	0.00
3	8676	0.001841	0.008800	0.00000	0.00	0.00	0.00	0.00000	0.000	1	0.00	0.00	0.00	0.00	0.00	0.00
4	1813	0.003610	0.015211	0.00000	438.00	0.00	0.00	0.00000	0.000	1	0.00	0.00	0.00	0.00	0.00	0.00
5241	4	0.000788	0.040317	0.00000	0.00	0.00	0.00	0.98214	0.000	1	0.00	0.00	0.00	0.00	0.00	0.00
9018	4	0.002169	0.009110	0.00000	400.00	0.00	0.00	0.00000	0.000	1	0.00	0.00	0.00	0.00	0.00	0.00
5	2675	0.015729	0.088240	0.00000	419.00	0.00	0.00	0.00000	0.000	1	0.00	0.00	0.00	0.00	0.00	0.00
5	5459	0.002909	0.014320	0.00000	476.00	0.00	0.00	0.00000	0.000	1	0.00	0.00	0.00	0.00	0.00	0.00
2923	6	0.000180	0.002240	0.00000	1942.00	0.00	0.00	0.00000	0.000	1	0.00	0.00	0.00	0.00	0.00	0.00
6	3068	0.000460	0.007500	0.00000	0.00	0.00	0.00	0.00000	0.000	1	0.00	0.00	0.00	0.00	0.00	0.00
4610	6	0.000580	0.007360	0.00000	1415.00	0.00	0.00	0.00000	0.000	1	0.00	0.00	0.00	0.00	0.00	0.00
5575	6	0.000340	0.004660	0.00000	0.00	0.00	0.00	0.00000	0.000	1	0.00	0.00	0.00	0.00	0.00	0.00
7	7208	0.015901	0.059529	0.00000	0.00	0.00	0.00	0.00000	0.000	1	0.00	0.00	0.00	0.00	0.00	0.00
7	8407	0.035174	0.062992	0.00000	0.00	0.00	0.00	0.00000	0.000	1	0.00	0.00	0.00	0.00	0.00	0.00
8	423	0.011290	0.053810	0.00000	0.00	0.00	0.00	0.00000	0.000	1	0.00	0.00	0.00	0.00	0.00	0.00
8	3212	0.000070	0.000680	0.00000	307.00	0.00	0.00	0.00000	0.000	1	0.00	0.00	0.00	0.00	0.00	0.00
8	6237	0.006690	0.052720	0.00000	0.00	0.00	0.00	0.00000	0.000	1	0.00	0.00	0.00	0.00	0.00	0.00
8	8472	0.003000	0.030680	0.00000	0.00	0.00	0.00	0.00000	0.000	1	0.00	0.00	0.00	0.00	0.00	0.00
1738	9	0.000000	0.046721	0.00000	0.00	0.00	0.00	0.98768	0.000	1	0.00	0.00	0.00	0.00	0.00	0.00
9	2287	0.005450	0.042990	0.00000	0.00	0.00	0.00	0.00000	0.000	1	0.00	0.00	0.00	0.00	0.00	0.00
8817	9	0.016160	0.051890	0.00000	0.00	0.00	0.00	0.00000	0.000	1	0.00	0.00	0.00	0.00	0.00	0.00
6630	10	0.000599	0.001860	0.00000	553.00	0.00	0.00	0.00000	0.000	1	0.00	0.00	0.00	0.00	0.00	0.00
11	5496	0.000000	0.000280	0.00000	0.00	0.00	0.00	0.00000	0.000	1	0.00	0.00	0.00	0.00	0.00	0.00
12	1637	0.004271	0.016431	0.00000	0.00	0.00	0.00	0.00000	0.000	1	0.00	0.00	0.00	0.00	0.00	0.00
12	2378	0.002320	0.009280	0.00000	0.00	0.00	0.00	0.00000	0.000	1	0.00	0.00	0.00	0.00	0.00	0.00
2822	13	0.004039	0.023081	0.00000	457.00	0.00	0.00	0.00000	0.000	1	0.00	0.00	0.00	0.00	0.00	0.00
2871	13	0.000599	0.003560	0.00000	495.00	0.00	0.00	0.00000	0.000	1	0.00	0.00	0.00	0.00	0.00	0.00
4516	13	0.011219	0.052450	0.00000	381.00	0.00	0.00	0.00000	0.000	1	0.00	0.00	0.00	0.00	0.00	0.00
14	436	0.001630	0.018190	0.00000	1580.00	0.00	0.00	0.00000	0.000	1	0.00	0.00	0.00	0.00	0.00	0.00
14	2869	0.002130	0.019880	0.00000	1020.00	0.00	0.00	0.00000	0.000	1	0.00	0.00	0.00	0.00	0.00	0.00
14	2869	0.001880	0.020290	0.00000	1020.00	0.00	0.00	0.00000	0.000	1	0.00	0.00	0.00	0.00	0.00	0.00
14	2925	0.000904	0.088121	0.00000	0.00	0.00	0.00	0.98684	0.000	1	0.00	0.00	0.00	0.00	0.00	0.00
5883	14	0.002410	0.026220	0.00000	1251.00	0.00	0.00	0.00000	0.000	1	0.00	0.00	0.00	0.00	0.00	0.00
6741	14	0.002360	0.026720	0.00000	1349.00	0.00	0.00	0.00000	0.000	1	0.00	0.00	0.00	0.00	0.00	0.00
8867	15	0.000130	0.001320	0.00000	514.00	0.00	0.00	0.00000	0.000	1	0.00	0.00	0.00	0.00	0.00	0.00
9216	15	0.000159	0.001461	0.00000	572.00	0.00	0.00	0.00000	0.000	1	0.00	0.00	0.00	0.00	0.00	0.00
1626	16	0.018020	0.057860	0.00000	0.00	0.00	0.00	0.00000	0.000	1	0.00	0.00	0.00	0.00	0.00	0.00
16	3708	0.025220	0.081000	0.00000	0.00	0.00	0.00	0.00000	0.000	1	0.00	0.00	0.00	0.00	0.00	0.00
16	4199	0.043750	0.140480	0.00000	0.00	0.00	0.00	0.00000	0.000	1	0.00	0.00	0.00	0.00	0.00	0.00
16	5756	0.005910	0.018980	0.00000	0.00	0.00	0.00	0.00000	0.000	1	0.00	0.00	0.00	0.00	0.00	0.00
17	2029	0.024581	0.402459	0.00000	0.00	0.00	0.00	0.00000	0.000	1	0.00	0.00	0.00	0.00	0.00	0.00
17	2112	0.227149	1.244607	0.00000	0.00	0.00	0.00	0.00000	0.000	1	0.00	0.00	0.00	0.00	0.00	0.00
17	2112	0.000000	0.000200	0.00000	0.00	0.00	0.00	0.00000	0.000	1	0.00	0.00	0.00	0.00	0.00	0.00
2712	17	0.043880	0.657934	0.00000	0.00	0.00	0.00	0.00000	0.000	1	0.00	0.00	0.00	0.00	0.00	0.00
3176	17	0.189870	0.937128	0.00000	0.00	0.00	0.00	0.00000	0.000	1	0.00	0.00	0.00	0.00	0.00	0.00
17	4471	0.001570	0.007031	0.00000	514.00	0.00	0.00	0.00000	0.000	1	0.00	0.00	0.00	0.00	0.00	0.00
6981	17	0.125250	0.756384	0.00000	0.00	0.00	0.00	0.00000	0.000	1	0.00	0.00	0.00	0.00	0.00	0.00
17	8775	0.001630	0.007031	0.00000	0.00	0.00	0.00	0.00000	0.000	1	0.00	0.00	0.00	0.00	0.00	0.00
18	1214	0.000400	0.004390	0.00000	1645.00	0.00	0.00	0.00000	0.000	1	0.00	0.00	0.00	0.00	0.00	0.00
18	1214	0.000450	0.003990	0.00000	1711.00	0.00	0.00	0.00000	0.000	1	0.00	0.00	0.00	0.00	0.00	0.00
9154	18	0.000190	0.001980	0.00000	1744.00	0.00	0.00	0.00000	0.000	1	0.00	0.00	0.00	0.00	0.00	0.00
9154	18	0.000190	0.002140	0.00000	1744.00	0.00	0.00	0.00000	0.000	1	0.00	0.00	0.00	0.00	0.00	0.00
19	1219	0.030240	0.085372	0.00000	0.00	0.00	0.00	0.00000	0.000	1	0.00	0.00	0.00	0.00	0.00	0.00
6029	19	0.028132	0.097008	0.00000	0.00	0.00	0.00	0.00000	0.000	1	0.00	0.00	0.00	0.00	0.00	0.00
19	7390	0.041570	0.149240	0.00000	0.00	0.00	0.00	0.00000	0.000	1	0.00	0.00	0.00	0.00	0.00	0.00
19	8667	0.038661	0.123091	0.00000	0.00	0.00	0.00	0.00000	0.000	1	0.00	0.00	0.00	0.00	0.00	0.00
320	20	0.000000	0.041737	0.00000	0.00	0.00	0.00	0.98701	0.000	1	0.00	0.00	0.00	0.00	0.00	0.00
320	20	0.000000	0.034784	0.00000	0.00	0.00	0.00	0.98701	0.000	1	0.00	0.00	0.00	0.00	0.00	0.00
1044	20	0.007360	0.058050	0.00000	0.00	0.00	0.00	0.00000	0.000	1	0.00	0.00	0.00	0.00	0.00	0.00
20	2979	0.003940	0.012660	0.00000	0.00	0.00	0.00	0.00000	0.000	1	0.00	0.00	0.00	0.00	0.00	0.00
20	3943	0.034910	0.112100	0.00000	0.00	0.00	0.00	0.00000	0.000	1	0.00	0.00	0.00	0.00	0.00	0.00
20	8460	0.025340	0.081360	0.00000	0.00	0.00	0.00	0.00000	0.000	1	0.00	0.00	0.00	0.00	0.00	0.00
3670	21	0.000289	0.001380	0.00000	419.00	0.00	0.00	0.00000	0.000	1	0.00	0.00	0.00	0.00	0.00	0.00
21	6163	0.000130	0.000550	0.00000	0.00	0.00	0.00	0.00000	0.000	1	0.00	0.00	0.00	0.00	0.00	0.00
7047	21	0.000320	0.001409	0.00000	0.00	0.00	0.00	0.00000	0.000	1	0.00	0.00	0.00	0.00	0.00	0.00
7047	21	0.000300	0.000961	0.00000	419.00	0.00	0.00	0.00000	0.000	1	0.00	0.00	0.00	0.00	0.00	0.00
2083	22	0.000870	0.006591	0.00000	0.00	0.00	0.00	0.00000	0.000	1	0.00	0.00	0.00	0.00	0.00	0.00
23	1779	0.016157	0.035826	0.00000	0.00	0.00	0.00	0.00000	0.000	1	0.00	0.00	0.00	0.00	0.00	0.00
23	3144	0.003727	0.020529	0.00000	0.00	0.00	0.00	0.00000	0.000	1	0.00	0.00	0.00	0.00	0.00	0.00
23	6002	0.019992	0.079231	0.00000	0.00	0.00	0.00	0.00000	0.000	1	0.00	0.00	0.00	0.00	0.00	0.00
7246	23	0.011876	0.064967	0.00000	0.00	0.00	0.00	0.00000	0.000	1	0.00	0.00	0.00	0.00	0.00	0.00
24	3914	0.041554	0.156107	0.00000	0.00	0.00	0.00	0.00000	0.000	1	0.00	0.00	0.00	0.00	0.00	0.00
8343	24	0.051017	0.111273	0.00000	0.00	0.00	0.00	0.00000	0.000	1	0.00	0.00	0.00	0.00	0.00	0.00
3321	25	0.000300	0.002669	0.00000	533.00	0.00	0.00	0.00000	0.000	1	0.00	0.00	0.00	0.00	0.00	0.00
26	2479	0.002030	0.024160	0.00000	1152.00	0.00	0.00	0.00000	0.000	1	0.00	0.00	0.00	0.00	0.00	0.00
26	4231	0.001030	0.009870	0.00000	1613.00	0.00	0.00	0.00000	0.000	1	0.00	0.00	0.00	0.00	0.00	0.00
26	4598	0.001000	0.014590	0.00000	0.00	0.00	0.00	0.00000	0.000	1	0.00	0.00	0.00	0.00	0.00	0.00
5016	26	0.000450	0.006080	0.00000	1514.00	0.00	0.00	0.00000	0.000	1	0.00	0.00	0.00	0.00	0.00	0.00
26	5144	0.000410	0.003980	0.00000	1316.00	0.00	0.00	0.00000	0.000	1	0.00	0.00	0.00	0.00	0.00	0.00
26	5144	0.000380	0.004830	0.00000	1448.00	0.00	0.00	0.00000	0.000	1	0.00	0.00	0.00	0.00	0.00	0.00
26	6624	0.002560	0.034010	0.00000	1645.00	0.00	0.00	0.00000	0.000	1	0.00	0.00	0.00	0.00	0.00	0.00
27	173	0.000262	0.020993	0.00000	0.00	0.00	0.00	1.03341	0.000	1	0.00	0.00	0.00	0.00	0.00	0.00
27	4847	0.000870	0.008980	0.00000	1711.00	0.00	0.00	0.00000	0.000	1	0.00	0.00	0.00	0.00	0.00	0.00
28	8090	0.000000	0.000222	0.00000	0.00	0.00	0.00	0.00000	0.000	1	0.00	0.00	0.00	0.00	0.00	0.00
1198	29	0.002300	0.015810	0.00000	1218.00	0.00	0.00	0.00000	0.000	1	0.00	0.00	0.00	0.00	0.00	0.00
9203	29	0.001050	0.008770	0.00000	1415.00	0.00	0.00	0.00000	0.000	1	0.00	0.00	0.00	0.00	0.00	0.00
1166	30	0.003809	0.013111	0.00000	0.00	0.00	0.00	0.00000	0.000	1	0.00	0.00	0.00	0.00	0.00	0.00
1296	30	0.003729	0.013218	0.00000	0.00	0.00	0.00	0.00000	0.000	1	0.00	0.00	0.00	0.00	0.00	0.00
5506	31	0.011240	0.039822	0.00000	0.00	0.00	0.00	0.00000	0.000	1	0.00	0.00	0.00	0.00	0.00	0.00
5553	31	0.028360	0.113400	0.00000	0.00	0.00	0.00	0.00000	0.000	1	0.00	0.00	0.00	0.00	0.00	0.00
6322	31	0.054000	0.121351	0.00000	0.00	0.00	0.00	0.00000	0.000	1	0.00	0.00	0.00	0.00	0.00	0.00
31	7734	0.043418	0.124111	0.00000	0.00	0.00	0.00	0.00000	0.000	1	0.00	0.00	0.00	0.00	0.00	0.00
8848	31	0.000000	0.000222	0.00000	0.00	0.00	0.00	0.00000	0.000	1	0.00	0.00	0.00	0.00	0.00	0.00
249	32	0.000091	0.000961	0.00000	0.00	0.00	0.00	0.00000	0.000	1	0.00	0.00	0.00	0.00	0.00	0.00
1391	32	0.028180	0.116099	0.00000	381.00	0.00	0.00	0.00000	0.000	1	0.00	0.00	0.00	0.00	0.00	0.00
32	2143	0.003240	0.019120	0.00000	381.00	0.00	0.00	0.00000	0.000	1	0.00	0.00	0.00	0.00	0.00	0.00
7819	32	0.027000	0.131289	0.00000	438.00	0.00	0.00	0.00000	0.000	1	0.00	0.00	0.00	0.00	0.00	0.00
8806	32	0.000686	0.030987	0.00000	0.00	0.00	0.00	1.02696	0.000	1	0.00	0.00	0.00	0.00	0.00	0.00
9043	32	0.026260	0.155760	0.00000	438.00	0.00	0.00	0.00000	0.000	1	0.00	0.00	0.00	0.00	0.00	0.00
33	3334	0.000211	0.001659	0.00000	0.00	0.00	0.00	0.00000	0.000	1	0.00	0.00	0.00	0.00	0.00	0.00
7029	33	0.000224	0.016641	0.00000	691.00	0.00	0.00	1.03599	0.000	1	0.00	0.00	0.00	0.00	0.00	0.00
7029	33	0.000219	0.017019	0.00000	691.00	0.00	0.00	1.03599	0.000	1	0.00	0.00	0.00	0.00	0.00	0.00
34	636	0.060471	0.109992	0.00000	0.00	0.00	0.00	0.00000	0.000	1	0.00	0.00	0.00	0.00	0.00	0.00
1324	34	0.060331	0.128752	0.00000	0.00	0.00	0.00	0.00000	0.000	1	0.00	0.00	0.00	0.00	0.00	0.00
5676	34	0.021959	0.050058	0.00000	0.00	0.00	0.00	0.00000	0.000	1	0.00	0.00	0.00	0.00	0.00	0.00
34	7022	0.037752	0.085843	0.00000	0.00	0.00	0.00	0.00000	0.000	1	0.00	0.00	0.00	0.00	0.00	0.00
35	3490	0.018471	0.041802	0.00000	0.00	0.00	0.00	0.00000	0.000	1	0.00	0.00	0.00	0.00	0.00	0.00
35	8837	0.011331	0.023636	0.00000	0.00	0.00	0.00	0.00000	0.000	1	0.00	0.00	0.00	0.00	0.00	0.00
665	36	0.005190	0.028151	0.00000	476.00	0.00	0.00	0.00000	0.000	1	0.00	0.00	0.00	0.00	0.00	0.00
1438	36	0.003180	0.021159	0.00000	457.00	0.00	0.00	0.00000	0.000	1	0.00	0.00	0.00	0.00	0.00	0.00
1438	36	0.003240	0.020760	0.00000	438.00	0.00	0.00	0.00000	0.000	1	0.00	0.00	0.00	0.00	0.00	0.00
36	1641	0.001360	0.057539	0.00000	0.00	0.00	0.00	1.00000	0.000	1	0.00	0.00	0.00	0.00	0.00	0.00
36	2369	0.008841	0.058700	0.00000	476.00	0.00	0.00	0.00000	0.000	1	0.00	0.00	0.00	0.00	0.00	0.00
2386	36	0.001260	0.007531	0.00000	419.00	0.00	0.00	0.00000	0.000	1	0.00	0.00	0.00	0.00	0.00	0.00
2865	36	0.011370	0.056789	0.00000	381.00	0.00	0.00	0.00000	0.000	1	0.00	0.00	0.00	0.00	0.00	0.00
3981	36	0.000448	0.016447	0.00000	724.00	0.00	0.00	1.00251	0.000	1	0.00	0.00	0.00	0.00	0.00	0.00
1306	37	0.017843	0.068107	0.00000	0.00	0.00	0.00	0.00000	0.000	1	0.00	0.00	0.00	0.00	0.00	0.00
4990	37	0.001640	0.079070	0.00000	0.00	0.00	0.00	1.04959	0.000	1	0.00	0.00	0.00	0.00	0.00	0.00
5076	37	0.019099	0.057876	0.00000	0.00	0.00	0.00	0.00000	0.000	1	0.00	0.00	0.00	0.00	0.00	0.00
37	5132	0.050190	0.152107	0.00000	0.00	0.00	0.00	0.00000	0.000	1	0.00	0.00	0.00	0.00	0.00	0.00
6409	37	0.020727	0.053512	0.00000	0.00	0.00	0.00	0.00000	0.000	1	0.00	0.00	0.00	0.00	0.00	0.00
6792	37	0.016893	0.050967	0.00000	0.00	0.00	0.00	0.00000	0.000	1	0.00	0.00	0.00	0.00	0.00	0.00
6792	37	0.016562	0.052033	0.00000	0.00	0.00	0.00	0.00000	0.000	1	0.00	0.00	0.00	0.00	0.00	0.00
76	38	0.000000	0.000469	0.00000	0.00	0.00	0.00	0.00000	0.000	1	0.00	0.00	0.00	0.00	0.00	0.00
2523	38	0.000940	0.012531	0.00000	0.00	0.00	0.00	0.00000	0.000	1	0.00	0.00	0.00	0.00	0.00	0.00
4248	38	0.001060	0.015950	0.00000	0.00	0.00	0.00	0.00000	0.000	1	0.00	0.00	0.00	0.00	0.00	0.00
38	5742	0.000219	0.000880	0.00000	533.00	0.00	0.00	0.00000	0.000	1	0.00	0.00	0.00	0.00	0.00	0.00
38	6118	0.000289	0.001039	0.00000	457.00	0.00	0.00	0.00000	0.000	1	0.00	0.00	0.00	0.00	0.00	0.00
39	1174	0.002009	0.014640	0.00000	0.00	0.00	0.00	0.00000	0.000	1	0.00	0.00	0.00	0.00	0.00	0.00
8197	39	0.000760	0.005622	0.00000	0.00	0.00	0.00	0.00000	0.000	1	0.00	0.00	0.00	0.00	0.00	0.00
40	5123	0.015950	0.022281	0.00000	0.00	0.00	0.00	0.00000	0.000	1	0.00	0.00	0.00	0.00	0.00	0.00
1474	41	0.046450	0.149160	0.00000	0.00	0.00	0.00	0.00000	0.000	1	0.00	0.00	0.00	0.00	0.00	0.00
8682	41	0.030010	0.096370	0.00000	0.00	0.00	0.00	0.00000	0.000	1	0.00	0.00	0.00	0.00	0.00	0.00
42	2096	0.001630	0.012870	0.00000	1711.00	0.00	0.00	0.00000	0.000	1	0.00	0.00	0.00	0.00	0.00	0.00
42	5919	0.000550	0.006210	0.00000	1777.00	0.00	0.00	0.00000	0.000	1	0.00	0.00	0.00	0.00	0.00	0.00
43	3783	0.006370	0.050210	0.00000	0.00	0.00	0.00	0.00000	0.000	1	0.00	0.00	0.00	0.00	0.00	0.00
9103	43	0.004400	0.034670	0.00000	0.00	0.00	0.00	0.00000	0.000	1	0.00	0.00	0.00	0.00	0.00	0.00
1027	44	0.000334	0.027480	0.00000	691.00	0.00	0.00	0.93617	0.000	1	0.00	0.00	0.00	0.00	0.00	0.00
44	1545	0.002659	0.020000	0.00000	0.00	0.00	0.00	0.00000	0.000	1	0.00	0.00	0.00	0.00	0.00	0.00
44	3541	0.003031	0.023430	0.00000	572.00	0.00	0.00	0.00000	0.000	1	0.00	0.00	0.00	0.00	0.00	0.00
5308	44	0.000323	0.028526	0.00000	691.00	0.00	0.00	0.93617	0.000	1	0.00	0.00	0.00	0.00	0.00	0.00
6313	44	0.003500	0.022211	0.00000	553.00	0.00	0.00	0.00000	0.000	1	0.00	0.00	0.00	0.00	0.00	0.00
8628	44	0.003591	0.021370	0.00000	591.00	0.00	0.00	0.00000	0.000	1	0.00	0.00	0.00	0.00	0.00	0.00
45	915	0.018868	0.083661	0.00000	0.00	0.00	0.00	0.00000	0.000	1	0.00	0.00	0.00	0.00	0.00	0.00
3534	45	0.004562	0.017174	0.00000	0.00	0.00	0.00	0.00000	0.000	1	0.00	0.00	0.00	0.00	0.00	0.00
45	4877	0.010190	0.027917	0.00000	0.00	0.00	0.00	0.00000	0.000	1	0.00	0.00	0.00	0.00	0.00	0.00
46	1286	0.073463	0.189678	0.00000	0.00	0.00	0.00	0.00000	0.000	1	0.00	0.00	0.00	0.00	0.00	0.00
46	4029	0.016339	0.035909	0.00000	0.00	0.00	0.00	0.00000	0.000	1	0.00	0.00	0.00	0.00	0.00	0.00
47	2221	0.029273	0.069752	0.00000	0.00	0.00	0.00	0.00000	0.000	1	0.00	0.00	0.00	0.00	0.00	0.00
47	2609	0.023678	0.070702	0.00000	0.00	0.00	0.00	0.00000	0.000	1	0.00	0.00	0.00	0.00	0.00	0.00
1710	48	0.017562	0.070818	0.00000	0.00	0.00	0.00	0.00000	0.000	1	0.00	0.00	0.00	0.00	0.00	0.00
48	3575	0.017719	0.054017	0.00000	0.00	0.00	0.00	0.00000	0.000	1	0.00	0.00	0.00	0.00	0.00	0.00
49	1236	0.005300	0.035521	0.00000	381.00	0.00	0.00	0.00000	0.000	1	0.00	0.00	0.00	0.00	0.00	0.00
1327	49	0.003599	0.020260	0.00000	419.00	0.00	0.00	0.00000	0.000	1	0.00	0.00	0.00	0.00	0.00	0.00
1327	49	0.003180	0.020669	0.00000	400.00	0.00	0.00	0.00000	0.000	1	0.00	0.00	0.00	0.00	0.00	0.00
49	2803	0.004860	0.024331	0.00000	419.00	0.00	0.00	0.00000	0.000	1	0.00	0.00	0.00	0.00	0.00	0.00
49	6992	0.006630	0.041810	0.00000	457.00	0.00	0.00	0.00000	0.000	1	0.00	0.00	0.00	0.00	0.00	0.00
8375	49	0.000330	0.025580	0.00000	0.00	0.00	0.00	1.00000	0.000	1	0.00	0.00	0.00	0.00	0.00	0.00
1460	50	0.008140	0.064170	0.00000	0.00	0.00	0.00	0.00000	0.000	1	0.00	0.00	0.00	0.00	0.00	0.00
1515	50	0.000000	0.049246	0.00000	0.00	0.00	0.00	0.97468	0.000	1	0.00	0.00	0.00	0.00	0.00	0.00
1515	50	0.000000	0.049246	0.00000	0.00	0.00	0.00	0.97468	0.000	1	0.00	0.00	0.00	0.00	0.00	0.00
3439	50	0.019260	0.118120	0.00000	0.00	0.00	0.00	0.00000	0.000	1	0.00	0.00	0.00	0.00	0.00	0.00
50	4459	0.011270	0.069100	0.00000	0.00	0.00	0.00	0.00000	0.000	1	0.00	0.00	0.00	0.00	0.00	0.00
4812	50	0.007700	0.047250	0.00000	0.00	0.00	0.00	0.00000	0.000	1	0.00	0.00	0.00	0.00	0.00	0.00
8937	50	0.006650	0.040820	0.00000	0.00	0.00	0.00	0.00000	0.000	1	0.00	0.00	0.00	0.00	0.00	0.00
8937	50	0.006650	0.040820	0.00000	0.00	0.00	0.00	0.00000	0.000	1	0.00	0.00	0.00	0.00	0.00	0.00
51	2517	0.007729	0.025401	0.00000	591.00	0.00	0.00	0.00000	0.000	1	0.00	0.00	0.00	0.00	0.00	0.00
51	5670	0.002950	0.016200	0.00000	419.00	0.00	0.00	0.00000	0.000	1	0.00	0.00	0.00	0.00	0.00	0.00
51	6174	0.001581	0.008700	0.00000	514.00	0.00	0.00	0.00000	0.000	1	0.00	0.00	0.00	0.00	0.00	0.00
52	199	0.007720	0.033818	0.00000	0.00	0.00	0.00	0.00000	0.000	1	0.00	0.00	0.00	0.00	0.00	0.00
52	928	0.003071	0.004551	0.00000	286.00	0.00	0.00	0.00000	0.000	1	0.00	0.00	0.00	0.00	0.00	0.00
52	928	0.003009	0.004649	0.00000	273.00	0.00	0.00	0.00000	0.000	1	0.00	0.00	0.00	0.00	0.00	0.00
52	2494	0.000098	0.000222	0.00000	0.00	0.00	0.00	0.00000	0.000	1	0.00	0.00	0.00	0.00	0.00	0.00
52	7195	0.008009	0.040000	0.00000	0.00	0.00	0.00	0.00000	0.000	1	0.00	0.00	0.00	0.00	0.00	0.00
8613	52	0.002671	0.018929	0.00000	0.00	0.00	0.00	0.00000	0.000	1	0.00	0.00	0.00	0.00	0.00	0.00
52	9007	0.000822	0.006560	0.00000	0.00	0.00	0.00	0.00000	0.000	1	0.00	0.00	0.00	0.00	0.00	0.00
53	4031	0.003711	0.024219	0.00000	514.00	0.00	0.00	0.00000	0.000	1	0.00	0.00	0.00	0.00	0.00	0.00
6474	53	0.002050	0.014229	0.00000	533.00	0.00	0.00	0.00000	0.000	1	0.00	0.00	0.00	0.00	0.00	0.00
1261	54	0.013700	0.104360	0.00000	457.00	0.00	0.00	0.00000	0.000	1	0.00	0.00	0.00	0.00	0.00	0.00
54	8521	0.004909	0.024680	0.00000	438.00	0.00	0.00	0.00000	0.000	1	0.00	0.00	0.00	0.00	0.00	0.00
8774	54	0.007950	0.048300	0.00000	0.00	0.00	0.00	0.00000	0.000	1	0.00	0.00	0.00	0.00	0.00	0.00
55	2413	0.000760	0.003640	0.00000	0.00	0.00	0.00	0.00000	0.000	1	0.00	0.00	0.00	0.00	0.00	0.00
55	5965	0.000750	0.004740	0.00000	0.00	0.00	0.00	0.00000	0.000	1	0.00	0.00	0.00	0.00	0.00	0.00
56	397	0.005081	0.024260	0.00000	419.00	0.00	0.00	0.00000	0.000	1	0.00	0.00	0.00	0.00	0.00	0.00
1624	56	0.470062	1.363636	0.00000	0.00	0.00	0.00	0.00000	0.000	1	0.00	0.00	0.00	0.00	0.00	0.00
...